# CIF file generated by openbabel 2.4.90, see http://openbabel.sf.net
data_I
_chemical_name_common ''
_cell_length_a 14.01
_cell_length_b 20.56
_cell_length_c 20.561
_cell_angle_alpha 89.85
_cell_angle_beta 93.673
_cell_angle_gamma 86.353
_space_group_name_H-M_alt 'P 1'
_space_group_name_Hall 'P 1'
loop_
    _symmetry_equiv_pos_as_xyz
    x,y,z
loop_
    _atom_site_label
    _atom_site_type_symbol
    _atom_site_fract_x
    _atom_site_fract_y
    _atom_site_fract_z
    _atom_site_occupancy
    N0      N    0.39510   0.77594   0.57951   1.000
    N1      N    0.85492   0.07954   0.77596   1.000
    N2      N    0.89511   0.77594   0.07951   1.000
    N3      N    0.89511   0.77594   0.57951   1.000
    N4      N    0.35492   0.57954   0.77597   1.000
    N5      N    0.85493   0.57954   0.27595   1.000
    N6      N    0.89510   0.27593   0.57951   1.000
    N7      N    0.85492   0.57954   0.77596   1.000
    N8      N    0.10490   0.22408   0.92050   1.000
    N9      N    0.64509   0.42047   0.22404   1.000
    N10     N    0.14509   0.92048   0.22404   1.000
    N11     N    0.60491   0.22408   0.92050   1.000
    N12     N    0.35492   0.07954   0.27595   1.000
    N13     N    0.35492   0.57954   0.27596   1.000
    N14     N    0.10491   0.72409   0.92050   1.000
    N15     N    0.85492   0.07954   0.27595   1.000
    N16     N    0.64509   0.92048   0.22405   1.000
    N17     N    0.60491   0.72409   0.92050   1.000
    N18     N    0.10490   0.22408   0.42050   1.000
    N19     N    0.14509   0.42047   0.22404   1.000
    N20     N    0.39511   0.77594   0.07950   1.000
    N21     N    0.60490   0.22408   0.42049   1.000
    N22     N    0.14508   0.42047   0.72406   1.000
    N23     N    0.39510   0.27593   0.57952   1.000
    N24     N    0.35491   0.07954   0.77597   1.000
    N25     N    0.10490   0.72408   0.42047   1.000
    N26     N    0.39510   0.27593   0.07951   1.000
    N27     N    0.14508   0.92048   0.72406   1.000
    N28     N    0.89511   0.27593   0.07950   1.000
    N29     N    0.64509   0.42047   0.72405   1.000
    N30     N    0.64509   0.92048   0.72400   1.000
    N31     N    0.60491   0.72409   0.42049   1.000
    Zr32    Zr   0.37501   0.34834   0.34831   1.000
    O33     O    0.37223   0.31714   0.43547   1.000
    O34     O    0.37779   0.43550   0.31714   1.000
    O35     O    0.45336   0.29634   0.35373   1.000
    O36     O    0.39040   0.31132   0.25387   1.000
    O37     O    0.29665   0.35375   0.29630   1.000
    O38     O    0.35961   0.25391   0.31131   1.000
    Zr39    Zr   0.37501   0.84835   0.34833   1.000
    O40     O    0.39041   0.81133   0.25388   1.000
    O41     O    0.35961   0.75392   0.31133   1.000
    O42     O    0.45336   0.79635   0.35375   1.000
    O43     O    0.29665   0.85376   0.29632   1.000
    O44     O    0.37779   0.93550   0.31715   1.000
    O45     O    0.37223   0.81715   0.43548   1.000
    Zr46    Zr   0.37500   0.84835   0.84833   1.000
    O47     O    0.37223   0.81715   0.93547   1.000
    O48     O    0.39040   0.81133   0.75389   1.000
    O49     O    0.29665   0.85376   0.79632   1.000
    O50     O    0.45336   0.79635   0.85375   1.000
    O51     O    0.35961   0.75392   0.81132   1.000
    O52     O    0.37778   0.93550   0.81715   1.000
    Zr53    Zr   0.37500   0.34834   0.84835   1.000
    O54     O    0.29665   0.35375   0.79634   1.000
    O55     O    0.39040   0.31133   0.75391   1.000
    O56     O    0.45335   0.29634   0.85377   1.000
    O57     O    0.35960   0.25391   0.81134   1.000
    O58     O    0.37222   0.31714   0.93549   1.000
    O59     O    0.37779   0.43550   0.81717   1.000
    Zr60    Zr   0.87501   0.34834   0.34834   1.000
    O61     O    0.87222   0.31714   0.43548   1.000
    O62     O    0.87779   0.43550   0.31715   1.000
    O63     O    0.95336   0.29634   0.35376   1.000
    O64     O    0.89040   0.31133   0.25389   1.000
    O65     O    0.85961   0.25391   0.31133   1.000
    O66     O    0.79665   0.35375   0.29632   1.000
    Zr67    Zr   0.87500   0.34834   0.84833   1.000
    O68     O    0.87223   0.31714   0.93548   1.000
    O69     O    0.87779   0.43550   0.81716   1.000
    O70     O    0.79665   0.35375   0.79632   1.000
    O71     O    0.85961   0.25391   0.81132   1.000
    O72     O    0.89040   0.31133   0.75389   1.000
    O73     O    0.95335   0.29634   0.85375   1.000
    Zr74    Zr   0.12500   0.15166   0.15167   1.000
    O75     O    0.12777   0.18286   0.06452   1.000
    O76     O    0.14039   0.24610   0.18867   1.000
    O77     O    0.04665   0.20367   0.14624   1.000
    O78     O    0.20335   0.14625   0.20368   1.000
    O79     O    0.10960   0.18868   0.24611   1.000
    O80     O    0.12222   0.06451   0.18284   1.000
    Zr81    Zr   0.12499   0.65167   0.65168   1.000
    O82     O    0.20335   0.64626   0.70369   1.000
    O83     O    0.10960   0.68869   0.74612   1.000
    O84     O    0.04664   0.70368   0.64625   1.000
    O85     O    0.14039   0.74611   0.68869   1.000
    O86     O    0.12221   0.56452   0.68286   1.000
    O87     O    0.12777   0.68287   0.56452   1.000
    Zr88    Zr   0.62499   0.65167   0.65168   1.000
    O89     O    0.62221   0.56452   0.68286   1.000
    O90     O    0.62778   0.68287   0.56453   1.000
    O91     O    0.54664   0.70368   0.64626   1.000
    O92     O    0.60960   0.68869   0.74612   1.000
    O93     O    0.64039   0.74611   0.68867   1.000
    O94     O    0.70335   0.64626   0.70369   1.000
    Zr95    Zr   0.62500   0.15166   0.15167   1.000
    O96     O    0.62221   0.06451   0.18285   1.000
    O97     O    0.70336   0.14625   0.20368   1.000
    O98     O    0.60960   0.18868   0.24611   1.000
    O99     O    0.54664   0.20367   0.14624   1.000
    O100    O    0.64039   0.24610   0.18867   1.000
    O101    O    0.62778   0.18287   0.06453   1.000
    Zr102   Zr   0.87501   0.84835   0.34832   1.000
    O103    O    0.87779   0.93550   0.31714   1.000
    O104    O    0.87223   0.81715   0.43547   1.000
    O105    O    0.95336   0.79635   0.35373   1.000
    O106    O    0.85961   0.75392   0.31131   1.000
    O107    O    0.89041   0.81133   0.25388   1.000
    O108    O    0.79665   0.85376   0.29631   1.000
    Zr109   Zr   0.62500   0.65167   0.15167   1.000
    O110    O    0.62222   0.56452   0.18285   1.000
    O111    O    0.64040   0.74611   0.18868   1.000
    O112    O    0.70336   0.64626   0.20368   1.000
    O113    O    0.54665   0.70368   0.14624   1.000
    O114    O    0.60960   0.68869   0.24611   1.000
    O115    O    0.62778   0.68287   0.06453   1.000
    Zr116   Zr   0.87500   0.84835   0.84833   1.000
    O117    O    0.87779   0.93550   0.81716   1.000
    O118    O    0.87223   0.81715   0.93548   1.000
    O119    O    0.79665   0.85376   0.79631   1.000
    O120    O    0.85961   0.75392   0.81133   1.000
    O121    O    0.89040   0.81134   0.75389   1.000
    O122    O    0.95336   0.79635   0.85376   1.000
    Zr123   Zr   0.12500   0.65167   0.15167   1.000
    O124    O    0.12221   0.56452   0.18284   1.000
    O125    O    0.20335   0.64626   0.20368   1.000
    O126    O    0.10960   0.68869   0.24610   1.000
    O127    O    0.04665   0.70368   0.14625   1.000
    O128    O    0.14039   0.74610   0.18867   1.000
    O129    O    0.12778   0.68287   0.06453   1.000
    Zr130   Zr   0.62499   0.15167   0.65167   1.000
    O131    O    0.62221   0.06451   0.68283   1.000
    O132    O    0.54664   0.20367   0.64626   1.000
    O133    O    0.60960   0.18868   0.74611   1.000
    O134    O    0.70335   0.14625   0.70369   1.000
    O135    O    0.64039   0.24610   0.68868   1.000
    O136    O    0.62777   0.18286   0.56452   1.000
    Zr137   Zr   0.12499   0.15166   0.65168   1.000
    O138    O    0.12221   0.06451   0.68286   1.000
    O139    O    0.12777   0.18286   0.56453   1.000
    O140    O    0.20335   0.14625   0.70369   1.000
    O141    O    0.04664   0.20367   0.64626   1.000
    O142    O    0.14039   0.24610   0.68869   1.000
    O143    O    0.10960   0.18868   0.74612   1.000
loop_
    _geom_bond_atom_site_label_1
    _geom_bond_atom_site_label_2
    _geom_bond_distance
    _geom_bond_site_symmetry_2
    _ccdc_geom_bond_type
    Zr32   O33       1.90537      .   S
    N23    O33       3.06979      .   S
    Zr32   O34       1.90512      .   S
    N13    O34       3.06957      .   S
    Zr32   O35       1.48155      .   S
    N21    O35       2.79525      .   S
    Zr32   O36       2.10638      .   S
    N26    O36       3.66394      .   S
    Zr32   O37       1.48135      .   S
    N19    O37       2.79508      .   S
    Zr32   O38       2.10588      .   S
    N12    O38       3.66373      .   S
    Zr39   O40       2.10642      .   S
    N20    O40       3.66435      .   S
    Zr39   O41       2.10589      .   S
    N13    O41       3.66383      .   S
    Zr39   O42       1.48155      .   S
    N31    O42       2.79518      .   S
    Zr39   O43       1.48136      .   S
    N10    O43       2.79521      .   S
    Zr39   O44       1.90507      .   S
    N12    O44       3.06944  1_545   S
    Zr39   O45       1.90521      .   S
    N0     O45       3.06955      .   S
    Zr46   O47       1.90512      .   S
    N20    O47       3.06935  1_554   S
    Zr46   O48       2.10635      .   S
    N0     O48       3.66420      .   S
    Zr46   O49       1.48140      .   S
    N27    O49       2.79505      .   S
    Zr46   O50       1.48155      .   S
    N17    O50       2.79530      .   S
    Zr46   O51       2.10592      .   S
    N4     O51       3.66376      .   S
    Zr46   O52       1.90505      .   S
    N24    O52       3.06935  1_545   S
    Zr53   O54       1.48142      .   S
    N22    O54       2.79522      .   S
    Zr53   O55       2.10635      .   S
    N23    O55       3.66448      .   S
    Zr53   O56       1.48156      .   S
    N11    O56       2.79515      .   S
    Zr53   O57       2.10594      .   S
    N24    O57       3.66385      .   S
    Zr53   O58       1.90501      .   S
    N26    O58       3.06923  1_554   S
    Zr53   O59       1.90524      .   S
    N4     O59       3.06963      .   S
    Zr60   O61       1.90510      .   S
    N6     O61       3.06953      .   S
    Zr60   O62       1.90521      .   S
    N5     O62       3.06964      .   S
    Zr60   O63       1.48153      .   S
    N18    O63       2.79515  1_455   S
    Zr60   O64       2.10650      .   S
    N28    O64       3.66443      .   S
    Zr60   O65       2.10593      .   S
    N15    O65       3.66382      .   S
    Zr60   O66       1.48141      .   S
    N9     O66       2.79524      .   S
    Zr67   O68       1.90508      .   S
    N28    O68       3.06931  1_554   S
    Zr67   O69       1.90517      .   S
    N7     O69       3.06961      .   S
    Zr67   O70       1.48144      .   S
    N29    O70       2.79507      .   S
    Zr67   O71       2.10594      .   S
    N1     O71       3.66374      .   S
    Zr67   O72       2.10638      .   S
    N6     O72       3.66423      .   S
    Zr67   O73       1.48154      .   S
    N8     O73       2.79521  1_455   S
    Zr74   O75       1.90524      .   S
    N8     O75       3.06924  1_556   S
    Zr74   O76       2.10594      .   S
    N19    O76       3.66384      .   S
    Zr74   O77       1.48153      .   S
    N28    O77       2.79506  1_655   S
    Zr74   O78       1.48141      .   S
    N12    O78       2.79520      .   S
    Zr74   O79       2.10635      .   S
    N18    O79       3.66444      .   S
    Zr74   O80       1.90499      .   S
    N10    O80       3.06943  1_565   S
    Zr81   O82       1.48145      .   S
    N4     O82       2.79529      .   S
    Zr81   O83       2.10633      .   S
    N14    O83       3.66438      .   S
    Zr81   O84       1.48152      .   S
    N3     O84       2.79507  1_655   S
    Zr81   O85       2.10594      .   S
    N27    O85       3.66383      .   S
    Zr81   O86       1.90520      .   S
    N22    O86       3.06961      .   S
    Zr81   O87       1.90543      .   S
    N25    O87       3.06974      .   S
    Zr88   O89       1.90518      .   S
    N29    O89       3.06958      .   S
    Zr88   O90       1.90519      .   S
    N31    O90       3.06956      .   S
    Zr88   O91       1.48153      .   S
    N0     O91       2.79511      .   S
    Zr88   O92       2.10633      .   S
    N17    O92       3.66438      .   S
    Zr88   O93       2.10582      .   S
    N30    O93       3.66364      .   S
    Zr88   O94       1.48142      .   S
    N7     O94       2.79525      .   S
    Zr95   O96       1.90507      .   S
    N16    O96       3.06940  1_565   S
    Zr95   O97       1.48140      .   S
    N15    O97       2.79524      .   S
    Zr95   O98       2.10632      .   S
    N21    O98       3.66434      .   S
    Zr95   O99       1.48155      .   S
    N26    O99       2.79508      .   S
    Zr95   O100      2.10595      .   S
    N9     O100      3.66386      .   S
    Zr95   O101      1.90506      .   S
    N11    O101      3.06932  1_556   S
    Zr102  O103      1.90508      .   S
    N15    O103      3.06939  1_545   S
    Zr102  O104      1.90523      .   S
    N3     O104      3.06950      .   S
    Zr102  O105      1.48155      .   S
    N25    O105      2.79510  1_455   S
    Zr102  O106      2.10592      .   S
    N5     O106      3.66376      .   S
    Zr102  O107      2.10632      .   S
    N2     O107      3.66409      .   S
    Zr102  O108      1.48136      .   S
    N16    O108      2.79504      .   S
    Zr109  O110      1.90517      .   S
    N9     O110      3.06957      .   S
    Zr109  O111      2.10596      .   S
    N16    O111      3.66384      .   S
    Zr109  O112      1.48142      .   S
    N5     O112      2.79526      .   S
    Zr109  O113      1.48153      .   S
    N20    O113      2.79506      .   S
    Zr109  O114      2.10634      .   S
    N31    O114      3.66441      .   S
    Zr109  O115      1.90505      .   S
    N17    O115      3.06935  1_556   S
    Zr116  O117      1.90506      .   S
    N1     O117      3.06940  1_545   S
    Zr116  O118      1.90514      .   S
    N2     O118      3.06947  1_554   S
    Zr116  O119      1.48151      .   S
    N30    O119      2.79557      .   S
    Zr116  O120      2.10589      .   S
    N7     O120      3.66384      .   S
    Zr116  O121      2.10644      .   S
    N3     O121      3.66439      .   S
    Zr116  O122      1.48156      .   S
    N14    O122      2.79522  1_455   S
    Zr123  O124      1.90511      .   S
    N19    O124      3.06962      .   S
    Zr123  O125      1.48142      .   S
    N13    O125      2.79522      .   S
    Zr123  O126      2.10623      .   S
    N25    O126      3.66406      .   S
    Zr123  O127      1.48152      .   S
    N2     O127      2.79507  1_655   S
    Zr123  O128      2.10594      .   S
    N10    O128      3.66383      .   S
    Zr123  O129      1.90506      .   S
    N14    O129      3.06935  1_556   S
    Zr130  O131      1.90493      .   S
    N30    O131      3.06925  1_565   S
    Zr130  O132      1.48153      .   S
    N23    O132      2.79502      .   S
    Zr130  O133      2.10645      .   S
    N11    O133      3.66453      .   S
    Zr130  O134      1.48151      .   S
    N1     O134      2.79534      .   S
    Zr130  O135      2.10597      .   S
    N29    O135      3.66387      .   S
    Zr130  O136      1.90524      .   S
    N21    O136      3.06936      .   S
    Zr137  O138      1.90507      .   S
    N27    O138      3.06941  1_565   S
    Zr137  O139      1.90518      .   S
    N18    O139      3.06953      .   S
    Zr137  O140      1.48142      .   S
    N24    O140      2.79522      .   S
    Zr137  O141      1.48155      .   S
    N6     O141      2.79513  1_655   S
    Zr137  O142      2.10595      .   S
    N22    O142      3.66386      .   S
    Zr137  O143      2.10631      .   S
    N8     O143      3.66431      .   S
