# CIF file generated by openbabel 2.4.90, see http://openbabel.sf.net
data_I
_chemical_name_common ''
_cell_length_a 18.923
_cell_length_b 18.949
_cell_length_c 18.947
_cell_angle_alpha 90
_cell_angle_beta 89.998
_cell_angle_gamma 89.999
_space_group_name_H-M_alt 'P 1'
_space_group_name_Hall 'P 1'
loop_
    _symmetry_equiv_pos_as_xyz
    x,y,z
loop_
    _atom_site_label
    _atom_site_type_symbol
    _atom_site_fract_x
    _atom_site_fract_y
    _atom_site_fract_z
    _atom_site_occupancy
    Cu0     Cu   0.00001   0.37295   0.49990   1.000
    Cu1     Cu   0.50014   0.00005   0.62702   1.000
    Cu2     Cu   0.49983   0.99994   0.37298   1.000
    Cu3     Cu   0.37258   0.50003   0.99995   1.000
    Cu4     Cu   0.62795   0.99997   0.50015   1.000
    Cu5     Cu   0.37201   0.00002   0.49985   1.000
    Cu6     Cu   0.99992   0.49995   0.37293   1.000
    Cu7     Cu   0.00006   0.50006   0.62709   1.000
    Cu8     Cu   0.50002   0.37300   0.99995   1.000
    H9      H    0.86463   0.71769   0.55663   1.000
    H10     H    0.13493   0.28196   0.55685   1.000
    H11     H    0.13529   0.71757   0.44353   1.000
    H12     H    0.86515   0.28175   0.44300   1.000
    H13     H    0.55592   0.86441   0.71710   1.000
    H14     H    0.55537   0.13611   0.28355   1.000
    H15     H    0.44458   0.13626   0.71642   1.000
    H16     H    0.44431   0.86389   0.28337   1.000
    H17     H    0.71771   0.55641   0.86451   1.000
    H18     H    0.28159   0.55697   0.13490   1.000
    H19     H    0.71778   0.44343   0.13559   1.000
    H20     H    0.28186   0.44320   0.86481   1.000
    H21     H    0.71758   0.86404   0.44375   1.000
    H22     H    0.28280   0.13638   0.44406   1.000
    H23     H    0.71793   0.13563   0.55649   1.000
    H24     H    0.28287   0.86365   0.55583   1.000
    H25     H    0.86476   0.55663   0.28221   1.000
    H26     H    0.13525   0.55674   0.71780   1.000
    H27     H    0.13479   0.44309   0.28170   1.000
    H28     H    0.86519   0.44319   0.71810   1.000
    H29     H    0.55633   0.71755   0.13520   1.000
    Cu30    Cu   0.99998   0.62706   0.50005   1.000
    H31     H    0.55635   0.28257   0.86469   1.000
    H32     H    0.44353   0.71776   0.86504   1.000
    H33     H    0.44352   0.28234   0.13495   1.000
    H34     H    0.13655   0.28355   0.44448   1.000
    H35     H    0.86386   0.71684   0.44425   1.000
    H36     H    0.86346   0.28371   0.55534   1.000
    H37     H    0.13605   0.71700   0.55580   1.000
    H38     H    0.44307   0.13456   0.28185   1.000
    H39     H    0.44364   0.86490   0.71700   1.000
    H40     H    0.55630   0.86470   0.28260   1.000
    H41     H    0.55657   0.13515   0.71763   1.000
    H42     H    0.28289   0.44417   0.13610   1.000
    H43     H    0.71776   0.44362   0.86444   1.000
    H44     H    0.28287   0.55598   0.86370   1.000
    H45     H    0.71742   0.55619   0.13586   1.000
    H46     H    0.28148   0.13508   0.55710   1.000
    H47     H    0.71813   0.86455   0.55681   1.000
    H48     H    0.28115   0.86525   0.44267   1.000
    H49     H    0.71800   0.13547   0.44330   1.000
    H50     H    0.13646   0.44453   0.71652   1.000
    H51     H    0.86344   0.44445   0.28347   1.000
    H52     H    0.86394   0.55576   0.71696   1.000
    H53     H    0.13602   0.55566   0.28316   1.000
    H54     H    0.44423   0.28311   0.86416   1.000
    H55     H    0.44416   0.71685   0.13590   1.000
    H56     H    0.55587   0.28289   0.13560   1.000
    H57     H    0.55591   0.71706   0.86447   1.000
    H58     H    0.76830   0.76826   0.60807   1.000
    H59     H    0.23182   0.23185   0.60782   1.000
    H60     H    0.23154   0.76824   0.39202   1.000
    H61     H    0.76807   0.23179   0.39222   1.000
    H62     H    0.60794   0.76854   0.76869   1.000
    H63     H    0.60769   0.23155   0.23162   1.000
    H64     H    0.39200   0.23140   0.76861   1.000
    H65     H    0.39168   0.76876   0.23118   1.000
    H66     H    0.76828   0.60790   0.76841   1.000
    H67     H    0.23157   0.60790   0.23166   1.000
    H68     H    0.76833   0.39188   0.23161   1.000
    H69     H    0.23164   0.39201   0.76835   1.000
    H70     H    0.76836   0.76834   0.39201   1.000
    H71     H    0.23144   0.23153   0.39172   1.000
    H72     H    0.76864   0.23158   0.60816   1.000
    H73     H    0.23167   0.76843   0.60801   1.000
    H74     H    0.76831   0.60797   0.23167   1.000
    H75     H    0.23171   0.60808   0.76837   1.000
    H76     H    0.23176   0.39216   0.23163   1.000
    H77     H    0.76831   0.39219   0.76826   1.000
    H78     H    0.60784   0.76847   0.23155   1.000
    H79     H    0.60817   0.23137   0.76868   1.000
    H80     H    0.39238   0.76837   0.76828   1.000
    H81     H    0.39216   0.23160   0.23146   1.000
    C82     C    0.87400   0.67261   0.59040   1.000
    C83     C    0.12579   0.32722   0.59053   1.000
    C84     C    0.12592   0.67251   0.40965   1.000
    C85     C    0.87424   0.32705   0.40930   1.000
    C86     C    0.59027   0.87399   0.67241   1.000
    C87     C    0.58982   0.12632   0.32811   1.000
    C88     C    0.41005   0.12636   0.67194   1.000
    C89     C    0.40973   0.87377   0.32780   1.000
    C90     C    0.67267   0.59034   0.87404   1.000
    C91     C    0.32688   0.59066   0.12569   1.000
    C92     C    0.67270   0.40954   0.12607   1.000
    C93     C    0.32708   0.40943   0.87415   1.000
    C94     C    0.67263   0.87378   0.40974   1.000
    C95     C    0.32744   0.12639   0.40973   1.000
    C96     C    0.67298   0.12601   0.59053   1.000
    C97     C    0.32764   0.87359   0.59001   1.000
    C98     C    0.74542   0.34468   0.74538   1.000
    C99     C    0.65528   0.74544   0.25457   1.000
    C100    C    0.65556   0.25446   0.74561   1.000
    C101    C    0.34488   0.74540   0.74532   1.000
    C102    C    0.87407   0.59044   0.32734   1.000
    C103    C    0.12594   0.59055   0.67273   1.000
    C104    C    0.12570   0.40944   0.32707   1.000
    C105    C    0.87430   0.40953   0.67282   1.000
    C106    C    0.59037   0.67258   0.12585   1.000
    C107    C    0.59045   0.32748   0.87413   1.000
    C108    C    0.40959   0.67269   0.87424   1.000
    C109    C    0.40957   0.32741   0.12570   1.000
    C110    C    0.12654   0.32802   0.41002   1.000
    C111    C    0.87364   0.67219   0.40996   1.000
    C112    C    0.87348   0.32814   0.58984   1.000
    C113    C    0.12631   0.67232   0.59013   1.000
    C114    C    0.40922   0.12550   0.32704   1.000
    C115    C    0.40967   0.87421   0.67240   1.000
    C116    C    0.59036   0.87412   0.32755   1.000
    C117    C    0.59067   0.12577   0.67270   1.000
    C118    C    0.32764   0.40994   0.12627   1.000
    C119    C    0.67277   0.40962   0.87400   1.000
    C120    C    0.32763   0.59019   0.87364   1.000
    C121    C    0.67254   0.59028   0.12617   1.000
    C122    C    0.32688   0.12581   0.59064   1.000
    C123    C    0.67298   0.87403   0.59064   1.000
    C124    C    0.32655   0.87440   0.40910   1.000
    C125    C    0.67276   0.12603   0.40964   1.000
    C126    C    0.12652   0.41010   0.67201   1.000
    C127    C    0.87343   0.41000   0.32796   1.000
    C128    C    0.87366   0.59003   0.67227   1.000
    C129    C    0.12627   0.58995   0.32783   1.000
    C130    C    0.40987   0.32776   0.87385   1.000
    C131    C    0.40977   0.67224   0.12610   1.000
    C132    C    0.59013   0.32765   0.12606   1.000
    C133    C    0.59016   0.67230   0.87403   1.000
    C134    C    0.77615   0.68471   0.68486   1.000
    C135    C    0.83784   0.65162   0.65173   1.000
    C136    C    0.22384   0.31526   0.68474   1.000
    C137    C    0.16216   0.34837   0.65100   1.000
    C138    C    0.22367   0.68473   0.31518   1.000
    C139    C    0.16208   0.65153   0.34840   1.000
    C140    C    0.77607   0.31519   0.31520   1.000
    C141    C    0.83781   0.34825   0.34836   1.000
    C142    C    0.68476   0.77625   0.68500   1.000
    C143    C    0.65184   0.83801   0.65191   1.000
    C144    C    0.68451   0.22381   0.31531   1.000
    C145    C    0.65152   0.16213   0.34847   1.000
    C146    C    0.31527   0.22376   0.68483   1.000
    C147    C    0.34823   0.16204   0.65170   1.000
    C148    C    0.31498   0.77634   0.31499   1.000
    C149    C    0.34791   0.83809   0.34808   1.000
    C150    C    0.68472   0.68481   0.77630   1.000
    C151    C    0.65167   0.65167   0.83804   1.000
    C152    C    0.31503   0.68490   0.22361   1.000
    C153    C    0.34801   0.65184   0.16186   1.000
    C154    C    0.68460   0.31515   0.22382   1.000
    C155    C    0.65166   0.34822   0.16200   1.000
    C156    C    0.31523   0.31514   0.77628   1.000
    C157    C    0.34821   0.34823   0.83800   1.000
    C158    C    0.68471   0.77625   0.31510   1.000
    C159    C    0.65176   0.83799   0.34826   1.000
    C160    C    0.31518   0.22373   0.31499   1.000
    C161    C    0.34809   0.16195   0.34804   1.000
    C162    C    0.68500   0.22367   0.68500   1.000
    C163    C    0.65209   0.16187   0.65198   1.000
    C164    C    0.31540   0.77624   0.68475   1.000
    C165    C    0.34841   0.83792   0.65160   1.000
    C166    C    0.77616   0.68476   0.31523   1.000
    C167    C    0.83785   0.65164   0.34835   1.000
    C168    C    0.22388   0.68484   0.68477   1.000
    C169    C    0.16212   0.65177   0.65173   1.000
    C170    C    0.22380   0.31528   0.31511   1.000
    C171    C    0.16210   0.34839   0.34822   1.000
    C172    C    0.77630   0.31529   0.68480   1.000
    C173    C    0.83791   0.34849   0.65164   1.000
    C174    C    0.68473   0.68486   0.22374   1.000
    C175    C    0.65172   0.65176   0.16202   1.000
    C176    C    0.68490   0.31514   0.77635   1.000
    C177    C    0.65192   0.34819   0.83810   1.000
    C178    C    0.31537   0.68487   0.77621   1.000
    C179    C    0.34836   0.65178   0.83793   1.000
    C180    C    0.31527   0.31521   0.22365   1.000
    C181    C    0.34833   0.34835   0.16199   1.000
    C182    C    0.74532   0.74532   0.65551   1.000
    C183    C    0.25473   0.25472   0.65533   1.000
    C184    C    0.25448   0.74534   0.34454   1.000
    C185    C    0.74513   0.25469   0.34474   1.000
    C186    C    0.65531   0.74544   0.74500   1.000
    C187    C    0.65510   0.25459   0.25460   1.000
    C188    C    0.34466   0.25452   0.74548   1.000
    C189    C    0.34438   0.74559   0.25434   1.000
    C190    C    0.74529   0.65532   0.74544   1.000
    C191    C    0.25451   0.65537   0.25458   1.000
    C192    C    0.74524   0.34455   0.25467   1.000
    C193    C    0.25466   0.34462   0.74536   1.000
    C194    C    0.74532   0.74535   0.34460   1.000
    C195    C    0.25456   0.25461   0.34440   1.000
    C196    C    0.74556   0.25461   0.65550   1.000
    C197    C    0.25475   0.74540   0.65536   1.000
    C198    C    0.74530   0.65538   0.25465   1.000
    C199    C    0.25474   0.65546   0.74535   1.000
    C200    C    0.25470   0.34470   0.25457   1.000
    C201    C    0.34469   0.25460   0.25445   1.000
    N202    N    0.92687   0.62704   0.57624   1.000
    N203    N    0.07298   0.37285   0.57625   1.000
    N204    N    0.07308   0.62691   0.42391   1.000
    N205    N    0.92705   0.37268   0.42364   1.000
    N206    N    0.57639   0.92692   0.62688   1.000
    N207    N    0.57583   0.07335   0.37356   1.000
    N208    N    0.42402   0.07337   0.62651   1.000
    N209    N    0.42360   0.92676   0.37300   1.000
    N210    N    0.62715   0.57611   0.92695   1.000
    N211    N    0.37249   0.57636   0.07288   1.000
    N212    N    0.62722   0.42378   0.07313   1.000
    N213    N    0.37264   0.42372   0.92700   1.000
    N214    N    0.62728   0.92678   0.42405   1.000
    N215    N    0.37275   0.07325   0.42379   1.000
    N216    N    0.62754   0.07302   0.57638   1.000
    N217    N    0.37296   0.92663   0.57574   1.000
    N218    N    0.92691   0.57620   0.37294   1.000
    N219    N    0.07305   0.57634   0.62717   1.000
    N220    N    0.07292   0.42370   0.37273   1.000
    N221    N    0.92706   0.42384   0.62714   1.000
    N222    N    0.57627   0.62698   0.07303   1.000
    N223    N    0.57637   0.37304   0.92699   1.000
    N224    N    0.42367   0.62708   0.92706   1.000
    N225    N    0.42371   0.37303   0.07292   1.000
    N226    N    0.07347   0.37344   0.42403   1.000
    N227    N    0.92664   0.62670   0.42401   1.000
    N228    N    0.92652   0.37360   0.57583   1.000
    N229    N    0.07330   0.62684   0.57610   1.000
    N230    N    0.42330   0.07273   0.37270   1.000
    N231    N    0.42385   0.92701   0.62688   1.000
    N232    N    0.57621   0.92697   0.37307   1.000
    N233    N    0.57665   0.07290   0.62714   1.000
    N234    N    0.37308   0.42403   0.07325   1.000
    N235    N    0.62726   0.42379   0.92693   1.000
    N236    N    0.37303   0.57606   0.92668   1.000
    N237    N    0.62708   0.57614   0.07319   1.000
    N238    N    0.37238   0.07299   0.57612   1.000
    N239    N    0.62754   0.92699   0.57638   1.000
    N240    N    0.37211   0.92723   0.42345   1.000
    N241    N    0.62733   0.07314   0.42409   1.000
    N242    N    0.07347   0.42411   0.62656   1.000
    N243    N    0.92652   0.42397   0.37337   1.000
    N244    N    0.92666   0.57601   0.62677   1.000
    N245    N    0.07332   0.57587   0.37338   1.000
    N246    N    0.42384   0.37328   0.92678   1.000
    N247    N    0.42375   0.62675   0.07319   1.000
    N248    N    0.57616   0.37320   0.07316   1.000
    N249    N    0.57612   0.62674   0.92690   1.000
loop_
    _geom_bond_atom_site_label_1
    _geom_bond_atom_site_label_2
    _geom_bond_distance
    _geom_bond_site_symmetry_2
    _ccdc_geom_bond_type
    N211   N247      1.36120      .   S
    N211   C91       1.34886      .   S
    N211   Cu3       2.00033  1_554   S
    N225   N234      1.36094      .   S
    N225   C109      1.34869      .   S
    N225   Cu8       1.99913  1_554   S
    N222   N237      1.36102      .   S
    N222   C106      1.34871      .   S
    N212   N248      1.36095      .   S
    N212   C92       1.34893      .   S
    N248   C132      1.34881      .   S
    N248   Cu8       2.00006  1_554   S
    N247   C131      1.34825      .   S
    N237   C121      1.34892      .   S
    N234   C118      1.34902      .   S
    N234   Cu3       2.00067  1_554   S
    C91    H18       1.08285      .   S
    C91    C153      1.40485      .   S
    C109   H33       1.08282      .   S
    C109   C181      1.40468      .   S
    C106   H29       1.08280      .   S
    C106   C175      1.40469      .   S
    C132   H56       1.08277      .   S
    C132   C155      1.40415      .   S
    C92    H19       1.08288      .   S
    C92    C155      1.40434      .   S
    C131   H55       1.08288      .   S
    C131   C153      1.40499      .   S
    C121   H45       1.08287      .   S
    C121   C175      1.40489      .   S
    C118   H42       1.08279      .   S
    C118   C181      1.40479      .   S
    C153   C152      1.46652      .   S
    C181   C180      1.46642      .   S
    C155   C154      1.46738      .   S
    C175   C174      1.46662      .   S
    C152   C189      1.40347      .   S
    C152   C191      1.40327      .   S
    C180   C201      1.40346      .   S
    C180   C200      1.40323      .   S
    C174   C99       1.40341      .   S
    C174   C198      1.40323      .   S
    C154   C187      1.40288      .   S
    C154   C192      1.40326      .   S
    H65    C189      1.08926      .   S
    H81    C201      1.08925      .   S
    H78    C99       1.08921      .   S
    H68    C192      1.08914      .   S
    H63    C187      1.08873      .   S
    H76    C200      1.08916      .   S
    H67    C191      1.08914      .   S
    H74    C198      1.08914      .   S
    C189   C148      1.40335      .   S
    C201   C160      1.40341      .   S
    C99    C158      1.40233      .   S
    C200   C170      1.40304      .   S
    C191   C138      1.40292      .   S
    C187   C144      1.40466      .   S
    C198   C166      1.40302      .   S
    C192   C140      1.40185      .   S
    H27    C104      1.08403      .   S
    H38    C114      1.08294      .   S
    H25    C102      1.08292      .   S
    H40    C116      1.08284      .   S
    H53    C129      1.08276      .   S
    H16    C89       1.08246      .   S
    H51    C127      1.08274      .   S
    H14    C87       1.08277      .   S
    C160   C195      1.40308      .   S
    C160   C161      1.46653      .   S
    C148   C184      1.40322      .   S
    C148   C149      1.46656      .   S
    C158   C194      1.40371      .   S
    C158   C159      1.46709      .   S
    C170   C195      1.40295      .   S
    C170   C171      1.46635      .   S
    C138   C184      1.40309      .   S
    C138   C139      1.46635      .   S
    C140   C185      1.40362      .   S
    C140   C141      1.46702      .   S
    C166   C194      1.40296      .   S
    C166   C167      1.46641      .   S
    C144   C185      1.40327      .   S
    C144   C145      1.46647      .   S
    C114   C161      1.40472      .   S
    C114   N230      1.34879      .   S
    C104   C171      1.40469      .   S
    C104   N220      1.34873      .   S
    C102   C167      1.40462      .   S
    C102   N218      1.34880      .   S
    C116   C159      1.40444      .   S
    C116   N232      1.34855      .   S
    C89    C149      1.40472      .   S
    C89    N209      1.34554      .   S
    C129   C139      1.40465      .   S
    C129   N245      1.34899      .   S
    C127   C141      1.40459      .   S
    C127   N243      1.34903      .   S
    C87    C145      1.40444      .   S
    C87    N207      1.34868      .   S
    C195   H71       1.08930      .   S
    C184   H60       1.08905      .   S
    C194   H70       1.08942      .   S
    C185   H61       1.08907      .   S
    C161   C95       1.40465      .   S
    C149   C124      1.40479      .   S
    C171   C110      1.40462      .   S
    C159   C94       1.40463      .   S
    C167   C111      1.40459      .   S
    C141   C85       1.40352      .   S
    C139   C84       1.40455      .   S
    C145   C125      1.40459      .   S
    N230   Cu2       1.99992  1_545   S
    N230   N215      1.36087      .   S
    N220   Cu6       1.99889  1_455   S
    N220   N226      1.36080      .   S
    Cu6    N218      1.99912      .   S
    Cu6    N243      2.00054      .   S
    Cu6    N245      1.99966  1_655   S
    N218   N227      1.36082      .   S
    Cu2    N209      2.00098      .   S
    Cu2    N232      2.00031      .   S
    Cu2    N207      2.00092  1_565   S
    N209   N240      1.36493      .   S
    N232   N214      1.36627      .   S
    N243   N205      1.36083      .   S
    N245   N204      1.36083      .   S
    N207   N241      1.36612      .   S
    C124   N240      1.34878      .   S
    C124   H48       1.08297      .   S
    C85    N205      1.34913      .   S
    C85    H12       1.08355      .   S
    C125   N241      1.34851      .   S
    C125   H49       1.08255      .   S
    C84    N204      1.34885      .   S
    C84    H11       1.08285      .   S
    C95    N215      1.34894      .   S
    C95    H22       1.08290      .   S
    C94    N214      1.34865      .   S
    C94    H21       1.08294      .   S
    C111   N227      1.34900      .   S
    C111   H35       1.08275      .   S
    C110   N226      1.34897      .   S
    C110   H34       1.08268      .   S
    N240   Cu5       1.99948  1_565   S
    N205   Cu0       1.99854  1_655   S
    N215   Cu5       2.00068      .   S
    N204   Cu30      1.99870  1_455   S
    N227   Cu30      2.00047      .   S
    N226   Cu0       1.99963      .   S
    N214   Cu4       2.00058      .   S
    N241   Cu4       1.99979  1_545   S
    Cu5    N217      2.00049  1_545   S
    Cu5    N238      2.00001      .   S
    Cu0    N228      2.00092  1_455   S
    Cu0    N203      1.99980      .   S
    Cu30   N229      2.00040  1_655   S
    Cu30   N202      1.99935      .   S
    Cu4    N216      2.00052  1_565   S
    Cu4    N239      1.99961      .   S
    H36    C112      1.08265      .   S
    H37    C113      1.08347      .   S
    H24    C97       1.08287      .   S
    H23    C96       1.08294      .   S
    H9     C82       1.08196      .   S
    H47    C123      1.08299      .   S
    H10    C83       1.08289      .   S
    H46    C122      1.08301      .   S
    N217   C97       1.34862      .   S
    N217   N231      1.36612      .   S
    N228   C112      1.34898      .   S
    N228   N221      1.36080      .   S
    N229   C113      1.34899      .   S
    N229   N219      1.36089      .   S
    N238   C122      1.34851      .   S
    N238   N208      1.36632      .   S
    N202   C82       1.34854      .   S
    N202   N244      1.36082      .   S
    N203   C83       1.34885      .   S
    N203   N242      1.36093      .   S
    N216   C96       1.34887      .   S
    N216   N233      1.36099      .   S
    N239   C123      1.34881      .   S
    N239   N206      1.36107      .   S
    C112   C173      1.40465      .   S
    C97    C165      1.40467      .   S
    C113   C169      1.40468      .   S
    C82    C135      1.40586      .   S
    C83    C137      1.39541      .   S
    C96    C163      1.40486      .   S
    C123   C143      1.40483      .   S
    C122   C147      1.40465      .   S
    H59    C183      1.08910      .   S
    H73    C197      1.08905      .   S
    H58    C182      1.08905      .   S
    H72    C196      1.08885      .   S
    N208   Cu1       2.00127      .   S
    N208   C88       1.34874      .   S
    N242   Cu7       2.00014      .   S
    N242   C126      1.34904      .   S
    N244   Cu7       2.00017  1_655   S
    N244   C128      1.34889      .   S
    N206   Cu1       2.00043  1_565   S
    N206   C86       1.34880      .   S
    N231   Cu1       2.00006  1_565   S
    N231   C115      1.34791      .   S
    Cu1    N233      2.00033      .   S
    Cu7    N221      1.99861  1_455   S
    Cu7    N219      1.99915      .   S
    N233   C117      1.34880      .   S
    N221   C105      1.34874      .   S
    N219   C103      1.34885      .   S
    C137   C126      1.40772      .   S
    C137   C136      1.47124      .   S
    C165   C115      1.40419      .   S
    C165   C164      1.46648      .   S
    C173   C105      1.40467      .   S
    C173   C172      1.46617      .   S
    C147   C88       1.40446      .   S
    C147   C146      1.46655      .   S
    C169   C103      1.40466      .   S
    C169   C168      1.46638      .   S
    C135   C128      1.40461      .   S
    C135   C134      1.46629      .   S
    C143   C86       1.40462      .   S
    C143   C142      1.46652      .   S
    C163   C117      1.40463      .   S
    C163   C162      1.46645      .   S
    C183   C136      1.40299      .   S
    C183   C146      1.40324      .   S
    C197   C164      1.40328      .   S
    C197   C168      1.40306      .   S
    C196   C172      1.40308      .   S
    C196   C162      1.40330      .   S
    C182   C134      1.40303      .   S
    C182   C142      1.40322      .   S
    C88    H15       1.08277      .   S
    C126   H50       1.08267      .   S
    C128   H52       1.08281      .   S
    C115   H39       1.07634      .   S
    C86    H13       1.08277      .   S
    C117   H41       1.08290      .   S
    C103   H26       1.08199      .   S
    C105   H28       1.08282      .   S
    C136   C193      1.40317      .   S
    C164   C101      1.40352      .   S
    C168   C199      1.40305      .   S
    C172   C98       1.40327      .   S
    C146   C188      1.40341      .   S
    C134   C190      1.40306      .   S
    C142   C186      1.39416      .   S
    C162   C100      1.40343      .   S
    C186   H62       1.09384      .   S
    C186   C150      1.40759      .   S
    C101   H80       1.08924      .   S
    C101   C178      1.40347      .   S
    C199   H75       1.08915      .   S
    C199   C178      1.40325      .   S
    C193   H69       1.08908      .   S
    C193   C156      1.40321      .   S
    C98    H77       1.08913      .   S
    C98    C176      1.40321      .   S
    C190   H66       1.08913      .   S
    C190   C150      1.40269      .   S
    C188   H64       1.08927      .   S
    C188   C156      1.40353      .   S
    C100   H79       1.08923      .   S
    C100   C176      1.40345      .   S
    C178   C179      1.46649      .   S
    C156   C157      1.46635      .   S
    C150   C151      1.46764      .   S
    C176   C177      1.46645      .   S
    C179   C120      1.40484      .   S
    C179   C108      1.40463      .   S
    C157   C130      1.40475      .   S
    C157   C93       1.40500      .   S
    C151   C133      1.40458      .   S
    C151   C90       1.40479      .   S
    C177   C119      1.40479      .   S
    C177   C107      1.40467      .   S
    H44    C120      1.08313      .   S
    H54    C130      1.08274      .   S
    H43    C119      1.08287      .   S
    H57    C133      1.08273      .   S
    H17    C90       1.08285      .   S
    H31    C107      1.08278      .   S
    H20    C93       1.08292      .   S
    H32    C108      1.08280      .   S
    C120   N236      1.34902      .   S
    C130   N246      1.34890      .   S
    C119   N235      1.34897      .   S
    C133   N249      1.34889      .   S
    C90    N210      1.34896      .   S
    C107   N223      1.34880      .   S
    C93    N213      1.34875      .   S
    C108   N224      1.34877      .   S
    N236   N224      1.36119      .   S
    N236   Cu3       2.00078      .   S
    N246   N213      1.36098      .   S
    N246   Cu8       2.00008      .   S
    N249   N210      1.36097      .   S
    N235   N223      1.36095      .   S
    N223   Cu8       1.99949      .   S
    N213   Cu3       2.00039      .   S
