# CIF file generated by openbabel 2.4.90, see http://openbabel.sf.net
data_I
_chemical_name_common ''
_cell_length_a 18.923
_cell_length_b 18.949
_cell_length_c 18.947
_cell_angle_alpha 90
_cell_angle_beta 89.998
_cell_angle_gamma 89.999
_space_group_name_H-M_alt 'P 1'
_space_group_name_Hall 'P 1'
loop_
    _symmetry_equiv_pos_as_xyz
    x,y,z
loop_
    _atom_site_label
    _atom_site_type_symbol
    _atom_site_fract_x
    _atom_site_fract_y
    _atom_site_fract_z
    _atom_site_occupancy
    Zr0     Zr   0.99998   0.62706   0.50005   1.000
    Zr1     Zr   0.00001   0.37295   0.49990   1.000
    Zr2     Zr   0.50014   0.00005   0.62702   1.000
    Zr3     Zr   0.49983   0.99994   0.37298   1.000
    Zr4     Zr   0.37258   0.50003   0.99995   1.000
    Zr5     Zr   0.62795   0.99997   0.50015   1.000
    Zr6     Zr   0.37201   0.00002   0.49985   1.000
    Zr7     Zr   0.99992   0.49995   0.37293   1.000
    Zr8     Zr   0.00006   0.50006   0.62709   1.000
    Zr9     Zr   0.50002   0.37300   0.99995   1.000
    N10     N    0.71310   0.28707   0.71302   1.000
    O11     O    0.62565   0.33004   0.83824   1.000
    O12     O    0.62575   0.16177   0.67005   1.000
    O13     O    0.67042   0.16178   0.62564   1.000
    O14     O    0.83833   0.37451   0.67007   1.000
    O15     O    0.83819   0.33017   0.62544   1.000
    N16     N    0.28703   0.28710   0.28695   1.000
    O17     O    0.32993   0.37457   0.16178   1.000
    O18     O    0.37445   0.33006   0.16169   1.000
    O19     O    0.16189   0.33015   0.37446   1.000
    O20     O    0.37430   0.16172   0.32990   1.000
    O21     O    0.16173   0.37446   0.32989   1.000
    O22     O    0.32971   0.16187   0.37439   1.000
    N23     N    0.28686   0.71294   0.28700   1.000
    O24     O    0.32970   0.62557   0.16171   1.000
    O25     O    0.16170   0.66996   0.37449   1.000
    O26     O    0.32946   0.83828   0.37432   1.000
    O27     O    0.37429   0.83815   0.32999   1.000
    O28     O    0.16174   0.62543   0.33008   1.000
    N29     N    0.71294   0.71290   0.71298   1.000
    O30     O    0.62560   0.83819   0.66996   1.000
    O31     O    0.83818   0.66997   0.62556   1.000
    O32     O    0.83815   0.62546   0.66995   1.000
    O33     O    0.67034   0.83819   0.62562   1.000
    N34     N    0.71292   0.71291   0.28708   1.000
    O35     O    0.83811   0.66989   0.37456   1.000
    O36     O    0.67027   0.83814   0.37459   1.000
    O37     O    0.83817   0.62549   0.33001   1.000
    O38     O    0.62547   0.83818   0.33005   1.000
    N39     N    0.28705   0.28710   0.71286   1.000
    O40     O    0.32983   0.37449   0.83817   1.000
    O41     O    0.37457   0.16191   0.66981   1.000
    O42     O    0.16177   0.33000   0.62547   1.000
    O43     O    0.16191   0.37459   0.66984   1.000
    O44     O    0.37449   0.33012   0.83811   1.000
    O45     O    0.32962   0.16180   0.62542   1.000
    N46     N    0.28715   0.71294   0.71285   1.000
    O47     O    0.32982   0.83813   0.62532   1.000
    O48     O    0.32998   0.62549   0.83808   1.000
    O49     O    0.16185   0.62557   0.66999   1.000
    O50     O    0.37457   0.83823   0.66990   1.000
    O51     O    0.16190   0.66994   0.62546   1.000
    N52     N    0.71282   0.28709   0.28717   1.000
    O53     O    0.83802   0.37453   0.33016   1.000
    O54     O    0.62546   0.33009   0.16186   1.000
    O55     O    0.83818   0.32995   0.37447   1.000
    O56     O    0.67023   0.16182   0.37465   1.000
    O57     O    0.62532   0.16187   0.33022   1.000
loop_
    _geom_bond_atom_site_label_1
    _geom_bond_atom_site_label_2
    _geom_bond_distance
    _geom_bond_site_symmetry_2
    _ccdc_geom_bond_type
    N10    O11       3.00514      .   S
    Zr9    O11       3.96235      .   S
    N10    O12       3.00544      .   S
    Zr2    O12       3.96300      .   S
    N10    O13       3.00492      .   S
    Zr5    O13       3.96247  1_565   S
    N10    O14       3.00385      .   S
    Zr8    O14       3.96097  1_455   S
    N10    O15       3.00377      .   S
    Zr1    O15       3.96135  1_455   S
    N16    O17       3.00512      .   S
    Zr4    O17       3.96287  1_556   S
    N16    O18       3.00519      .   S
    Zr9    O18       3.96226  1_556   S
    N16    O19       3.00366      .   S
    Zr1    O19       3.96092      .   S
    N16    O20       3.00558      .   S
    Zr3    O20       3.96309  1_565   S
    N16    O21       3.00408      .   S
    Zr7    O21       3.96150  1_655   S
    N16    O22       3.00462      .   S
    Zr6    O22       3.96202      .   S
    N23    O24       3.00556      .   S
    Zr4    O24       3.96357  1_556   S
    N23    O25       3.00347      .   S
    Zr0    O25       3.96043  1_655   S
    N23    O26       3.00477      .   S
    Zr6    O26       3.96204  1_545   S
    N23    O27       3.00492      .   S
    Zr3    O27       3.96320      .   S
    N23    O28       3.00365      .   S
    Zr7    O28       3.96089  1_655   S
    N29    O30       3.00538      .   S
    Zr2    O30       3.96294  1_545   S
    N29    O31       3.00355      .   S
    Zr0    O31       3.96103      .   S
    N29    O32       3.00383      .   S
    Zr8    O32       3.96152  1_455   S
    N29    O33       3.00431      .   S
    Zr5    O33       3.96144      .   S
    N34    O35       3.00397      .   S
    Zr0    O35       3.96163      .   S
    N34    O36       3.00526      .   S
    Zr5    O36       3.96274      .   S
    N34    O37       3.00377      .   S
    Zr7    O37       3.96099      .   S
    N34    O38       3.00598      .   S
    Zr3    O38       3.96346      .   S
    N39    O40       3.00572      .   S
    Zr4    O40       3.96359      .   S
    N39    O41       3.00592      .   S
    Zr2    O41       3.96361      .   S
    N39    O42       3.00374      .   S
    Zr1    O42       3.96137      .   S
    N39    O43       3.00342      .   S
    Zr8    O43       3.96076      .   S
    N39    O44       3.00577      .   S
    Zr9    O44       3.96309      .   S
    N39    O45       3.00509      .   S
    Zr6    O45       3.96255      .   S
    N46    O47       3.00500      .   S
    Zr6    O47       3.96230  1_545   S
    N46    O48       3.00539      .   S
    Zr4    O48       3.96326      .   S
    N46    O49       3.00372      .   S
    Zr8    O49       3.96109      .   S
    N46    O50       3.00600      .   S
    Zr2    O50       3.96341  1_545   S
    N46    O51       3.00392      .   S
    Zr0    O51       3.96173  1_655   S
    N52    O53       3.00366      .   S
    Zr7    O53       3.96132      .   S
    N52    O54       3.00570      .   S
    Zr9    O54       3.96316  1_556   S
    N52    O55       3.00383      .   S
    Zr1    O55       3.96118  1_455   S
    N52    O56       3.00512      .   S
    Zr5    O56       3.96238  1_565   S
    N52    O57       3.00610      .   S
    Zr3    O57       3.96365  1_565   S
