# CIF file generated by openbabel 2.4.90, see http://openbabel.sf.net
data_I
_chemical_name_common ''
_cell_length_a 10.118
_cell_length_b 11.5265
_cell_length_c 14.927
_cell_angle_alpha 91.151
_cell_angle_beta 90.01
_cell_angle_gamma 90.045
_space_group_name_H-M_alt 'P 1'
_space_group_name_Hall 'P 1'
loop_
    _symmetry_equiv_pos_as_xyz
    x,y,z
loop_
    _atom_site_label
    _atom_site_type_symbol
    _atom_site_fract_x
    _atom_site_fract_y
    _atom_site_fract_z
    _atom_site_occupancy
    C0      C    0.07195   0.75489   0.13173   1.000
    C1      C    0.88241   0.74069   0.30879   1.000
    C2      C    0.57196   0.74512   0.36834   1.000
    C3      C    0.38242   0.75936   0.19121   1.000
    C4      C    0.92802   0.24509   0.86826   1.000
    C5      C    0.11756   0.25930   0.69121   1.000
    C6      C    0.42801   0.25486   0.63165   1.000
    C7      C    0.61755   0.24063   0.80880   1.000
    C8      C    1.00000   0.49999   1.00000   1.000
    C9      C    0.49999   0.00000   0.50000   1.000
    C10     C    0.00000   0.00000   1.00000   1.000
    C11     C    0.49998   0.49999   0.50000   1.000
    C12     C    0.24231   0.85691   0.37124   1.000
    C13     C    0.94679   0.47271   0.26882   1.000
    C14     C    0.39010   0.56200   0.04450   1.000
    C15     C    0.79085   0.98134   0.23097   1.000
    C16     C    0.83722   0.68913   0.92244   1.000
    C17     C    0.29120   0.00246   0.01252   1.000
    C18     C    0.74212   0.64336   0.12874   1.000
    C19     C    0.44774   0.02734   0.23113   1.000
    C20     C    0.89019   0.93856   0.45543   1.000
    C21     C    0.29065   0.51854   0.26902   1.000
    C22     C    0.33677   0.81059   0.57729   1.000
    C23     C    0.79115   0.49824   0.48801   1.000
    C24     C    0.75766   0.14309   0.62875   1.000
    C25     C    0.05319   0.52728   0.73117   1.000
    C26     C    0.60987   0.43798   0.95551   1.000
    C27     C    0.20911   0.01865   0.76902   1.000
    C28     C    0.16275   0.31086   0.07755   1.000
    C29     C    0.70877   0.99753   0.98748   1.000
    C30     C    0.25785   0.35663   0.87125   1.000
    C31     C    0.55222   0.97264   0.76887   1.000
    C32     C    0.10978   0.06144   0.54455   1.000
    C33     C    0.70932   0.48145   0.73098   1.000
    C34     C    0.66319   0.18940   0.42270   1.000
    C35     C    0.20882   0.50173   0.51197   1.000
    C36     C    0.16092   0.82453   0.32834   1.000
    C37     C    0.97454   0.51856   0.20722   1.000
    C38     C    0.28254   0.57655   0.05151   1.000
    C39     C    0.86377   0.95219   0.18001   1.000
    C40     C    0.89823   0.74302   0.96822   1.000
    C41     C    0.27320   0.92974   0.05776   1.000
    C42     C    0.66078   0.67562   0.17166   1.000
    C43     C    0.47501   0.98146   0.29279   1.000
    C44     C    0.78265   0.92371   0.44845   1.000
    C45     C    0.36365   0.54775   0.31996   1.000
    C46     C    0.39805   0.75679   0.53169   1.000
    C47     C    0.77313   0.57064   0.44249   1.000
    C48     C    0.83905   0.17544   0.67166   1.000
    C49     C    0.02538   0.48143   0.79276   1.000
    C50     C    0.71743   0.42344   0.94849   1.000
    C51     C    0.13620   0.04779   0.81999   1.000
    C52     C    0.10173   0.25697   0.03178   1.000
    C53     C    0.72677   0.07025   0.94223   1.000
    C54     C    0.33919   0.32437   0.82833   1.000
    C55     C    0.52498   0.01853   0.70720   1.000
    C56     C    0.21732   0.07631   0.55151   1.000
    C57     C    0.63632   0.45224   0.68003   1.000
    C58     C    0.60191   0.24320   0.46829   1.000
    C59     C    0.22683   0.42932   0.55749   1.000
    C60     C    0.18982   0.80064   0.24629   1.000
    C61     C    0.04901   0.81523   0.36420   1.000
    C62     C    0.97875   0.63000   0.21445   1.000
    C63     C    0.99935   0.45952   0.13808   1.000
    C64     C    0.24856   0.65089   0.11292   1.000
    C65     C    0.20677   0.51988   0.00059   1.000
    C66     C    0.91208   0.85046   0.19154   1.000
    C67     C    0.88970   0.02021   0.11809   1.000
    C68     C    0.97225   0.68556   0.02234   1.000
    C69     C    0.88880   0.85071   0.96401   1.000
    C70     C    0.15202   0.89609   0.06349   1.000
    C71     C    0.37110   0.88898   0.09803   1.000
    C72     C    0.68971   0.69939   0.25373   1.000
    C73     C    0.54886   0.68485   0.13579   1.000
    C74     C    0.47903   0.87003   0.28558   1.000
    C75     C    0.49946   0.04051   0.36203   1.000
    C76     C    0.74872   0.84922   0.38709   1.000
    C77     C    0.70685   0.98017   0.49939   1.000
    C78     C    0.41196   0.64956   0.30845   1.000
    C79     C    0.38966   0.47974   0.38185   1.000
    C80     C    0.47212   0.81437   0.47763   1.000
    C81     C    0.38877   0.64909   0.53601   1.000
    C82     C    0.65196   0.60411   0.43665   1.000
    C83     C    0.87101   0.61127   0.40207   1.000
    C84     C    0.81015   0.19936   0.75370   1.000
    C85     C    0.95096   0.18478   0.63579   1.000
    C86     C    0.02124   0.36999   0.78556   1.000
    C87     C    0.00064   0.54047   0.86192   1.000
    C88     C    0.75141   0.34910   0.88708   1.000
    C89     C    0.79320   0.48010   0.99941   1.000
    C90     C    0.08789   0.14953   0.80846   1.000
    C91     C    0.11026   0.97978   0.88191   1.000
    C92     C    0.02773   0.31443   0.97765   1.000
    C93     C    0.11117   0.14928   0.03598   1.000
    C94     C    0.84795   0.10390   0.93651   1.000
    C95     C    0.62887   0.11101   0.90197   1.000
    C96     C    0.31026   0.30059   0.74627   1.000
    C97     C    0.45111   0.31514   0.86421   1.000
    C98     C    0.52094   0.12996   0.71442   1.000
    C99     C    0.50049   0.95948   0.63796   1.000
    C100    C    0.25126   0.15076   0.61292   1.000
    C101    C    0.29313   0.01980   0.50062   1.000
    C102    C    0.58800   0.35043   0.69154   1.000
    C103    C    0.61030   0.52024   0.61815   1.000
    C104    C    0.52786   0.18562   0.52237   1.000
    C105    C    0.61120   0.35090   0.46399   1.000
    C106    C    0.34801   0.39588   0.56335   1.000
    C107    C    0.12896   0.38871   0.59794   1.000
    O108    O    0.24465   0.54822   0.02605   1.000
    O109    O    0.10338   0.50994   0.00030   1.000
    O110    O    0.28220   0.96610   0.03514   1.000
    O111    O    0.02210   0.72023   0.07704   1.000
    O112    O    0.93524   0.71429   0.99528   1.000
    O113    O    0.10645   0.20312   0.03388   1.000
    O114    O    0.13224   0.28391   0.05467   1.000
    O115    O    0.06473   0.28570   0.00472   1.000
    O116    O    0.05559   0.07464   0.01799   1.000
    O117    O    0.33632   0.56927   0.04800   1.000
    O118    O    0.26555   0.61372   0.08222   1.000
    O119    O    0.21261   0.91291   0.06063   1.000
    O120    O    0.32215   0.90936   0.07790   1.000
    O121    O    0.11198   0.82549   0.09761   1.000
    O122    O    0.37676   0.82417   0.14462   1.000
    O123    O    0.16025   0.70289   0.12233   1.000
    O124    O    0.87673   0.98620   0.14905   1.000
    O125    O    0.94485   0.01011   0.05904   1.000
    O126    O    0.70145   0.65949   0.15020   1.000
    O127    O    0.99201   0.80267   0.16164   1.000
    O128    O    0.13088   0.77777   0.18901   1.000
    O129    O    0.60482   0.68024   0.15373   1.000
    O130    O    0.46564   0.72211   0.16350   1.000
    O131    O    0.98695   0.48904   0.17265   1.000
    O132    O    0.99968   0.47975   0.06904   1.000
    O133    O    0.67525   0.68751   0.21270   1.000
    O134    O    0.88792   0.90132   0.18577   1.000
    O135    O    0.82731   0.96676   0.20549   1.000
    O136    O    0.43072   0.81469   0.23839   1.000
    O137    O    0.97664   0.57428   0.21084   1.000
    O138    O    0.96066   0.49563   0.23802   1.000
    O139    O    0.93058   0.68534   0.26162   1.000
    O140    O    0.46137   0.00440   0.26196   1.000
    O141    O    0.17537   0.81259   0.28732   1.000
    O142    O    0.63084   0.72226   0.31104   1.000
    O143    O    0.32715   0.53314   0.29449   1.000
    O144    O    0.47702   0.92574   0.28918   1.000
    O145    O    0.48724   0.01098   0.32741   1.000
    O146    O    0.38780   0.59865   0.31421   1.000
    O147    O    0.49196   0.69734   0.33840   1.000
    O148    O    0.96571   0.77796   0.33650   1.000
    O149    O    0.87671   0.67598   0.35543   1.000
    O150    O    0.37665   0.51375   0.35090   1.000
    O151    O    0.10497   0.81988   0.34627   1.000
    O152    O    0.20161   0.84072   0.34979   1.000
    O153    O    0.49973   0.02026   0.43102   1.000
    O154    O    0.66034   0.79717   0.37772   1.000
    O155    O    0.61196   0.67462   0.40250   1.000
    O156    O    0.52204   0.77975   0.42299   1.000
    O157    O    0.44482   0.48987   0.44092   1.000
    O158    O    0.76568   0.88646   0.41777   1.000
    O159    O    0.82207   0.59096   0.42228   1.000
    O160    O    0.63255   0.21630   0.44549   1.000
    O161    O    0.71255   0.58738   0.43957   1.000
    O162    O    0.78214   0.53444   0.46525   1.000
    O163    O    0.83642   0.93114   0.45194   1.000
    O164    O    0.74475   0.95194   0.47392   1.000
    O165    O    0.60656   0.29705   0.46614   1.000
    O166    O    0.55559   0.42545   0.48199   1.000
    O167    O    0.56488   0.21441   0.49533   1.000
    O168    O    0.43508   0.78558   0.50466   1.000
    O169    O    0.60342   0.99009   0.49969   1.000
    O170    O    0.44438   0.57454   0.51800   1.000
    O171    O    0.55514   0.51012   0.55907   1.000
    O172    O    0.39656   0.00990   0.50031   1.000
    O173    O    0.50024   0.97974   0.56898   1.000
    O174    O    0.25523   0.04806   0.52607   1.000
    O175    O    0.21782   0.46552   0.53473   1.000
    O176    O    0.47793   0.22024   0.57701   1.000
    O177    O    0.39341   0.70294   0.53385   1.000
    O178    O    0.36741   0.78369   0.55449   1.000
    O179    O    0.16355   0.06888   0.54803   1.000
    O180    O    0.23429   0.11353   0.58222   1.000
    O181    O    0.28742   0.41260   0.56042   1.000
    O182    O    0.17790   0.40902   0.57771   1.000
    O183    O    0.38801   0.32537   0.59750   1.000
    O184    O    0.12326   0.32400   0.64457   1.000
    O185    O    0.33963   0.20281   0.62228   1.000
    O186    O    0.62331   0.48624   0.64909   1.000
    O187    O    0.79836   0.15927   0.65020   1.000
    O188    O    0.50800   0.30265   0.66160   1.000
    O189    O    0.36913   0.27773   0.68896   1.000
    O190    O    0.89501   0.18011   0.65373   1.000
    O191    O    0.03426   0.22204   0.66350   1.000
    O192    O    0.51274   0.98901   0.67258   1.000
    O193    O    0.82460   0.18740   0.71268   1.000
    O194    O    0.61216   0.40134   0.68579   1.000
    O195    O    0.67282   0.46685   0.70551   1.000
    O196    O    0.06940   0.31464   0.73838   1.000
    O197    O    0.52296   0.07425   0.71081   1.000
    O198    O    0.53860   0.99559   0.73803   1.000
    O199    O    0.56925   0.18530   0.76161   1.000
    O200    O    0.03928   0.50435   0.76197   1.000
    O201    O    0.32472   0.31248   0.78730   1.000
    O202    O    0.86908   0.22223   0.81098   1.000
    O203    O    0.17266   0.03322   0.79451   1.000
    O204    O    0.02331   0.42571   0.78916   1.000
    O205    O    0.01301   0.51095   0.82734   1.000
    O206    O    0.11204   0.09866   0.81423   1.000
    O207    O    0.00796   0.19731   0.83836   1.000
    O208    O    0.53433   0.27788   0.83650   1.000
    O209    O    0.62321   0.17582   0.85538   1.000
    O210    O    0.12323   0.01378   0.85095   1.000
    O211    O    0.39515   0.31975   0.84627   1.000
    O212    O    0.29852   0.34050   0.84979   1.000
    O213    O    0.00032   0.52023   0.93096   1.000
    O214    O    0.83972   0.29710   0.87767   1.000
    O215    O    0.88799   0.17450   0.90238   1.000
    O216    O    0.97787   0.27976   0.92296   1.000
    O217    O    0.05513   0.98989   0.94095   1.000
    O218    O    0.73442   0.38627   0.91778   1.000
    O219    O    0.67782   0.09063   0.92210   1.000
    O220    O    0.86772   0.71608   0.94533   1.000
    O221    O    0.78736   0.08708   0.93937   1.000
    O222    O    0.71777   0.03389   0.96485   1.000
    O223    O    0.66365   0.43071   0.95200   1.000
    O224    O    0.75531   0.45177   0.97395   1.000
    O225    O    0.89352   0.79687   0.96612   1.000
    O226    O    0.94440   0.92536   0.98201   1.000
    O227    O    0.89660   0.49005   0.99970   1.000
    O228    O    0.28612   0.78000   0.21875   1.000
    O229    O    0.02535   0.69245   0.17309   1.000
    O230    O    0.31549   0.70513   0.15206   1.000
    O231    O    0.89724   0.79557   0.25017   1.000
    O232    O    0.98612   0.59278   0.01117   1.000
    O233    O    0.07601   0.94805   0.03174   1.000
    O234    O    0.78606   0.72004   0.28126   1.000
    O235    O    0.52550   0.80757   0.32696   1.000
    O236    O    0.81556   0.79495   0.34794   1.000
    O237    O    0.39719   0.70446   0.24983   1.000
    O238    O    0.48605   0.90719   0.48881   1.000
    O239    O    0.57597   0.55205   0.46833   1.000
    O240    O    0.71385   0.21999   0.78125   1.000
    O241    O    0.97463   0.30754   0.82691   1.000
    O242    O    0.68448   0.29486   0.84794   1.000
    O243    O    0.10273   0.20441   0.74983   1.000
    O244    O    0.01386   0.40721   0.98883   1.000
    O245    O    0.92398   0.05195   0.96825   1.000
    O246    O    0.21391   0.27994   0.71874   1.000
    O247    O    0.47448   0.19241   0.67304   1.000
    O248    O    0.18441   0.20503   0.65206   1.000
    O249    O    0.60278   0.29553   0.75017   1.000
    O250    O    0.51392   0.09281   0.51118   1.000
    O251    O    0.42400   0.44794   0.53167   1.000
loop_
    _geom_bond_atom_site_label_1
    _geom_bond_atom_site_label_2
    _geom_bond_distance
    _geom_bond_site_symmetry_2
    _ccdc_geom_bond_type
    C65    O108      0.62671      .   S
    C38    O108      0.62671      .   S
    C65    O109      1.05223      .   S
    C8     O109      1.05223  1_656   S
    C17    O110      0.55101  1_545   S
    C41    O110      0.55101      .   S
    C68    O111      1.03303  1_655   S
    C0     O111      1.03303      .   S
    C68    O112      0.64697  1_554   S
    C40    O112      0.64697      .   S
    C52    O113      0.62392      .   S
    C93    O113      0.62392      .   S
    C52    O114      0.55137      .   S
    C28    O114      0.55137      .   S
    C52    O115      0.64696      .   S
    C92    O115      0.64696  1_556   S
    C93    O116      1.05759      .   S
    C10    O116      1.05759  1_556   S
    C14    O117      0.55295      .   S
    C38    O117      0.55295      .   S
    C38    O118      0.64457      .   S
    C64    O118      0.64457      .   S
    C41    O119      0.64454      .   S
    C70    O119      0.64454      .   S
    C41    O120      0.62750      .   S
    C71    O120      0.62750      .   S
    C70    O121      1.04971      .   S
    C0     O121      1.04971      .   S
    C71    O122      1.03239      .   S
    C3     O122      1.03239      .   S
    C64    O123      1.08388      .   S
    C0     O123      1.08388      .   S
    C67    O124      0.62583  1_545   S
    C39    O124      0.62583      .   S
    C67    O125      1.04778      .   S
    C10    O125      1.04778  1_456   S
    C18    O126      0.55164      .   S
    C42    O126      0.55164      .   S
    C0     O127      1.07127  1_455   S
    C66    O127      1.07127      .   S
    C0     O128      1.07084      .   S
    C60    O128      1.07084      .   S
    C73    O129      0.62903      .   S
    C42    O129      0.62903      .   S
    C73    O130      1.02859      .   S
    C3     O130      1.02859      .   S
    C63    O131      0.62525      .   S
    C37    O131      0.62525      .   S
    C63    O132      1.06118      .   S
    C8     O132      1.06118  1_556   S
    C42    O133      0.64182      .   S
    C72    O133      0.64182      .   S
    C39    O134      0.64279      .   S
    C66    O134      0.64279      .   S
    C39    O135      0.55368      .   S
    C15    O135      0.55368      .   S
    C3     O136      1.05976      .   S
    C74    O136      1.05976      .   S
    C37    O137      0.64378      .   S
    C62    O137      0.64378      .   S
    C37    O138      0.55292      .   S
    C13    O138      0.55292      .   S
    C62    O139      1.05966      .   S
    C1     O139      1.05966      .   S
    C19    O140      0.55293      .   S
    C43    O140      0.55293  1_565   S
    C60    O141      0.64184      .   S
    C36    O141      0.64184      .   S
    C72    O142      1.07118      .   S
    C2     O142      1.07118      .   S
    C21    O143      0.55370      .   S
    C45    O143      0.55370      .   S
    C74    O144      0.64374      .   S
    C43    O144      0.64374      .   S
    C43    O145      0.62532  1_565   S
    C75    O145      0.62532      .   S
    C78    O146      0.64282      .   S
    C45    O146      0.64282      .   S
    C78    O147      1.07126      .   S
    C2     O147      1.07126      .   S
    C1     O148      1.02865      .   S
    C61    O148      1.02865  1_455   S
    C1     O149      1.03201      .   S
    C83    O149      1.03201      .   S
    C45    O150      0.62576      .   S
    C79    O150      0.62576      .   S
    C36    O151      0.62901      .   S
    C61    O151      0.62901      .   S
    C36    O152      0.55164      .   S
    C12    O152      0.55164      .   S
    C75    O153      1.06040      .   S
    C9     O153      1.06040      .   S
    C2     O154      1.08389      .   S
    C76    O154      1.08389      .   S
    C2     O155      1.04943      .   S
    C82    O155      1.04943      .   S
    C2     O156      1.03299      .   S
    C80    O156      1.03299      .   S
    C79    O157      1.04801      .   S
    C11    O157      1.04801      .   S
    C76    O158      0.64461      .   S
    C44    O158      0.64461      .   S
    C83    O159      0.62748      .   S
    C47    O159      0.62748      .   S
    C34    O160      0.55135      .   S
    C58    O160      0.55135      .   S
    C82    O161      0.64452      .   S
    C47    O161      0.64452      .   S
    C47    O162      0.55098      .   S
    C23    O162      0.55098      .   S
    C44    O163      0.55297      .   S
    C20    O163      0.55297      .   S
    C44    O164      0.62668      .   S
    C77    O164      0.62668      .   S
    C105   O165      0.62393      .   S
    C58    O165      0.62393      .   S
    C105   O166      1.05768      .   S
    C11    O166      1.05768      .   S
    C58    O167      0.64697      .   S
    C104   O167      0.64697      .   S
    C80    O168      0.64698      .   S
    C46    O168      0.64698      .   S
    C77    O169      1.05280      .   S
    C9     O169      1.05280  1_545   S
    C11    O170      1.05767      .   S
    C81    O170      1.05767      .   S
    C11    O171      1.04800      .   S
    C103   O171      1.04800      .   S
    C9     O172      1.05281      .   S
    C101   O172      1.05281      .   S
    C9     O173      1.06038  1_545   S
    C99    O173      1.06038      .   S
    C101   O174      0.62668      .   S
    C56    O174      0.62668      .   S
    C35    O175      0.55098      .   S
    C59    O175      0.55098      .   S
    C104   O176      1.03299      .   S
    C6     O176      1.03299      .   S
    C46    O177      0.62393      .   S
    C81    O177      0.62393      .   S
    C46    O178      0.55136      .   S
    C22    O178      0.55136      .   S
    C32    O179      0.55297      .   S
    C56    O179      0.55297      .   S
    C56    O180      0.64461      .   S
    C100   O180      0.64461      .   S
    C59    O181      0.64452      .   S
    C106   O181      0.64452      .   S
    C59    O182      0.62748      .   S
    C107   O182      0.62748      .   S
    C106   O183      1.04942      .   S
    C6     O183      1.04942      .   S
    C107   O184      1.03201      .   S
    C5     O184      1.03201      .   S
    C100   O185      1.08390      .   S
    C6     O185      1.08390      .   S
    C103   O186      0.62577      .   S
    C57    O186      0.62577      .   S
    C24    O187      0.55165      .   S
    C48    O187      0.55165      .   S
    C6     O188      1.07128      .   S
    C102   O188      1.07128      .   S
    C6     O189      1.07120      .   S
    C96    O189      1.07120      .   S
    C85    O190      0.62901      .   S
    C48    O190      0.62901      .   S
    C85    O191      1.02861  1_655   S
    C5     O191      1.02861      .   S
    C99    O192      0.62534      .   S
    C55    O192      0.62534  1_545   S
    C48    O193      0.64184      .   S
    C84    O193      0.64184      .   S
    C57    O194      0.64281      .   S
    C102   O194      0.64281      .   S
    C57    O195      0.55370      .   S
    C33    O195      0.55370      .   S
    C5     O196      1.05964      .   S
    C86    O196      1.05964      .   S
    C55    O197      0.64373      .   S
    C98    O197      0.64373      .   S
    C55    O198      0.55292  1_545   S
    C31    O198      0.55292      .   S
    C98    O199      1.05977      .   S
    C7     O199      1.05977      .   S
    C25    O200      0.55292      .   S
    C49    O200      0.55292      .   S
    C96    O201      0.64182      .   S
    C54    O201      0.64182      .   S
    C84    O202      1.07083      .   S
    C4     O202      1.07083      .   S
    C27    O203      0.55368      .   S
    C51    O203      0.55368      .   S
    C86    O204      0.64378      .   S
    C49    O204      0.64378      .   S
    C49    O205      0.62525      .   S
    C87    O205      0.62525      .   S
    C90    O206      0.64280      .   S
    C51    O206      0.64280      .   S
    C90    O207      1.07125      .   S
    C4     O207      1.07125  1_655   S
    C7     O208      1.02859      .   S
    C97    O208      1.02859      .   S
    C7     O209      1.03238      .   S
    C95    O209      1.03238      .   S
    C51    O210      0.62582      .   S
    C91    O210      0.62582  1_565   S
    C54    O211      0.62902      .   S
    C97    O211      0.62902      .   S
    C54    O212      0.55164      .   S
    C30    O212      0.55164      .   S
    C87    O213      1.06117      .   S
    C8     O213      1.06117  1_655   S
    C4     O214      1.08389      .   S
    C88    O214      1.08389      .   S
    C4     O215      1.04970      .   S
    C94    O215      1.04970      .   S
    C4     O216      1.03302      .   S
    C92    O216      1.03302  1_455   S
    C91    O217      1.04771      .   S
    C10    O217      1.04771  1_545   S
    C88    O218      0.64457      .   S
    C50    O218      0.64457      .   S
    C95    O219      0.62749      .   S
    C53    O219      0.62749      .   S
    C16    O220      0.55137      .   S
    C40    O220      0.55137      .   S
    C94    O221      0.64455      .   S
    C53    O221      0.64455      .   S
    C53    O222      0.55100      .   S
    C29    O222      0.55100  1_565   S
    C50    O223      0.55293      .   S
    C26    O223      0.55293      .   S
    C50    O224      0.62671      .   S
    C89    O224      0.62671      .   S
    C69    O225      0.62392      .   S
    C40    O225      0.62392      .   S
    C69    O226      1.05772      .   S
    C10    O226      1.05772  1_445   S
    C89    O227      1.05237      .   S
    C8     O227      1.05237      .   S
    C60    O228      1.08239      .   S
    C3     O228      1.08239      .   S
    C62    O229      1.06720  1_655   S
    C0     O229      1.06720      .   S
    C64    O230      1.08410      .   S
    C3     O230      1.08410      .   S
    C66    O231      1.10033      .   S
    C1     O231      1.10033      .   S
    C68    O232      1.08826      .   S
    C8     O232      1.08826  1_556   S
    C70    O233      1.08934      .   S
    C10    O233      1.08934  1_546   S
    C72    O234      1.08232      .   S
    C1     O234      1.08232      .   S
    C74    O235      1.06728      .   S
    C2     O235      1.06728      .   S
    C76    O236      1.08456      .   S
    C1     O236      1.08456      .   S
    C78    O237      1.10043      .   S
    C3     O237      1.10043      .   S
    C80    O238      1.08854      .   S
    C9     O238      1.08854  1_545   S
    C82    O239      1.08881      .   S
    C11    O239      1.08881      .   S
    C84    O240      1.08240      .   S
    C7     O240      1.08240      .   S
    C86    O241      1.06720  1_455   S
    C4     O241      1.06720      .   S
    C88    O242      1.08409      .   S
    C7     O242      1.08409      .   S
    C90    O243      1.10032      .   S
    C5     O243      1.10032      .   S
    C92    O244      1.08824      .   S
    C8     O244      1.08824  1_655   S
    C94    O245      1.08941      .   S
    C10    O245      1.08941  1_455   S
    C96    O246      1.08231      .   S
    C5     O246      1.08231      .   S
    C98    O247      1.06728      .   S
    C6     O247      1.06728      .   S
    C100   O248      1.08457      .   S
    C5     O248      1.08457      .   S
    C102   O249      1.10045      .   S
    C7     O249      1.10045      .   S
    C104   O250      1.08846      .   S
    C9     O250      1.08846      .   S
    C106   O251      1.08879      .   S
    C11    O251      1.08879      .   S
