# CIF file generated by openbabel 2.4.90, see http://openbabel.sf.net
data_I
_chemical_name_common ''
_cell_length_a 13.188
_cell_length_b 13.2
_cell_length_c 23.339
_cell_angle_alpha 90.007
_cell_angle_beta 89.999
_cell_angle_gamma 90.45
_space_group_name_H-M_alt 'P 1'
_space_group_name_Hall 'P 1'
loop_
    _symmetry_equiv_pos_as_xyz
    x,y,z
loop_
    _atom_site_label
    _atom_site_type_symbol
    _atom_site_fract_x
    _atom_site_fract_y
    _atom_site_fract_z
    _atom_site_occupancy
    Zr0     Zr   0.25364   0.36459   0.75037   1.000
    Zr1     Zr   0.27579   0.34729   0.87463   1.000
    Zr2     Zr   0.74638   0.63538   0.25038   1.000
    Zr3     Zr   0.72423   0.65270   0.37464   1.000
    O4      O    0.26471   0.35594   0.81250   1.000
    O5      O    0.73531   0.64404   0.31251   1.000
    N6      N    0.71593   0.63447   0.81131   1.000
    O7      O    0.72868   0.62636   0.00911   1.000
    O8      O    0.71960   0.65006   0.61497   1.000
    N9      N    0.28410   0.36551   0.31124   1.000
    O10     O    0.27135   0.37361   0.50907   1.000
    O11     O    0.28042   0.34993   0.11493   1.000
    N12     N    0.76497   0.35616   0.81293   1.000
    O13     O    0.97151   0.35476   0.78607   1.000
    O14     O    0.98150   0.34823   0.84135   1.000
    O15     O    0.55820   0.35712   0.83944   1.000
    O16     O    0.54835   0.36489   0.78424   1.000
    N17     N    0.73680   0.14402   0.31312   1.000
    O18     O    0.73501   0.35952   0.34289   1.000
    O19     O    0.72755   0.93625   0.33824   1.000
    O20     O    0.74596   0.35190   0.28779   1.000
    O21     O    0.73626   0.92844   0.28298   1.000
    N22     N    0.23505   0.64383   0.31293   1.000
    O23     O    0.44182   0.64286   0.33945   1.000
    O24     O    0.01852   0.65176   0.34136   1.000
    O25     O    0.45167   0.63509   0.28424   1.000
    O26     O    0.02851   0.64522   0.28608   1.000
    N27     N    0.26322   0.85596   0.81311   1.000
    O28     O    0.25406   0.64808   0.78778   1.000
    O29     O    0.26501   0.64047   0.84288   1.000
    O30     O    0.27247   0.06374   0.83823   1.000
    O31     O    0.26376   0.07154   0.78298   1.000
loop_
    _geom_bond_atom_site_label_1
    _geom_bond_atom_site_label_2
    _geom_bond_distance
    _geom_bond_site_symmetry_2
    _ccdc_geom_bond_type
    Zr0    O4        1.46196      .   S
    Zr1    O4        1.46196      .   S
    Zr2    O5        1.46194      .   S
    Zr3    O5        1.46194      .   S
    N6     O7        4.62078  1_556   S
    Zr2    O7        5.63715      .   S
    N6     O8        4.58716      .   S
    Zr3    O8        5.60952      .   S
    N9     O10       4.62141      .   S
    Zr0    O10       5.63784      .   S
    N9     O11       4.58644      .   S
    Zr1    O11       5.60885  1_556   S
    N12    O13       2.79527      .   S
    Zr0    O13       3.81408  1_455   S
    N12    O14       2.93431      .   S
    Zr1    O14       3.95806  1_455   S
    N12    O15       2.79634      .   S
    Zr1    O15       3.81515      .   S
    N12    O16       2.93747      .   S
    Zr0    O16       3.96610      .   S
    N17    O18       2.92841      .   S
    Zr3    O18       3.94384      .   S
    N17    O19       2.80635  1_545   S
    Zr3    O19       3.83805      .   S
    N17    O20       2.80862      .   S
    Zr2    O20       3.84259      .   S
    N17    O21       2.93128  1_545   S
    Zr2    O21       3.94563      .   S
    N22    O23       2.79637      .   S
    Zr3    O23       3.81518      .   S
    N22    O24       2.93433      .   S
    Zr3    O24       3.95807  1_655   S
    N22    O25       2.93743      .   S
    Zr2    O25       3.96608      .   S
    N22    O26       2.79525      .   S
    Zr2    O26       3.81406  1_655   S
    N27    O28       2.80853      .   S
    Zr0    O28       3.84244      .   S
    N27    O29       2.92848      .   S
    Zr1    O29       3.94396      .   S
    N27    O30       2.80627  1_565   S
    Zr1    O30       3.83792      .   S
    N27    O31       2.93131  1_565   S
    Zr0    O31       3.94584      .   S
