# CIF file generated by openbabel 2.4.90, see http://openbabel.sf.net
data_I
_chemical_name_common ''
_cell_length_a 9.0755
_cell_length_b 9.1395
_cell_length_c 18.989
_cell_angle_alpha 89.998
_cell_angle_beta 89.993
_cell_angle_gamma 70.226
_space_group_name_H-M_alt 'P 1'
_space_group_name_Hall 'P 1'
loop_
    _symmetry_equiv_pos_as_xyz
    x,y,z
loop_
    _atom_site_label
    _atom_site_type_symbol
    _atom_site_fract_x
    _atom_site_fract_y
    _atom_site_fract_z
    _atom_site_occupancy
    O0      O    0.08063   0.96374   0.35440   1.000
    O1      O    0.21149   0.13212   0.41044   1.000
    O2      O    0.32981   0.10761   0.00000   1.000
    O3      O    0.28736   0.42445   0.36746   1.000
    O4      O    0.18983   0.18791   0.11718   1.000
    O5      O    0.43905   0.95738   0.11448   1.000
    O6      O    0.47486   0.53741   0.31489   1.000
    O7      O    0.38002   0.88016   0.35522   1.000
    O8      O    0.35120   0.38587   0.23744   1.000
    O9      O    0.18540   0.65008   0.27984   1.000
    O10     O    0.44954   0.23067   0.09595   1.000
    O11     O    0.42535   0.53558   0.85212   1.000
    O12     O    0.29469   0.36797   0.91044   1.000
    O13     O    0.17694   0.39276   0.50340   1.000
    O14     O    0.21882   0.07582   0.86738   1.000
    O15     O    0.31675   0.31249   0.61714   1.000
    O16     O    0.06714   0.54267   0.61443   1.000
    O17     O    0.03171   0.96236   0.81477   1.000
    O18     O    0.12591   0.61948   0.85507   1.000
    O19     O    0.15469   0.11402   0.73731   1.000
    O20     O    0.32110   0.85067   0.77897   1.000
    O21     O    0.05712   0.26980   0.59582   1.000
    O22     O    0.92551   0.03638   0.64556   1.000
    O23     O    0.79396   0.86778   0.58935   1.000
    O24     O    0.67665   0.89226   0.99649   1.000
    O25     O    0.71893   0.57550   0.63248   1.000
    O26     O    0.81639   0.81202   0.88268   1.000
    O27     O    0.56725   0.04260   0.88547   1.000
    O28     O    0.53145   0.46267   0.68514   1.000
    O29     O    0.62613   0.11986   0.64478   1.000
    O30     O    0.65505   0.61447   0.76248   1.000
    O31     O    0.82091   0.35010   0.72020   1.000
    O32     O    0.55670   0.76928   0.90404   1.000
    O33     O    0.58106   0.46423   0.14784   1.000
    O34     O    0.71154   0.63201   0.08954   1.000
    O35     O    0.82977   0.60747   0.49647   1.000
    O36     O    0.78742   0.92426   0.13249   1.000
    O37     O    0.68981   0.68796   0.38277   1.000
    O38     O    0.93938   0.45780   0.38541   1.000
    O39     O    0.97438   0.03769   0.18524   1.000
    O40     O    0.88050   0.38068   0.14494   1.000
    O41     O    0.85114   0.88584   0.26254   1.000
    O42     O    0.68500   0.14920   0.22110   1.000
    O43     O    0.94952   0.73068   0.40403   1.000
