# CIF file generated by openbabel 2.4.90, see http://openbabel.sf.net
data_I
_chemical_name_common ''
_cell_length_a 9.0755
_cell_length_b 9.1395
_cell_length_c 18.989
_cell_angle_alpha 89.998
_cell_angle_beta 89.993
_cell_angle_gamma 70.226
_space_group_name_H-M_alt 'P 1'
_space_group_name_Hall 'P 1'
loop_
    _symmetry_equiv_pos_as_xyz
    x,y,z
loop_
    _atom_site_label
    _atom_site_type_symbol
    _atom_site_fract_x
    _atom_site_fract_y
    _atom_site_fract_z
    _atom_site_occupancy
    Lv0     Lv   0.35126   0.12209   0.08276   1.000
    Lv1     Lv   0.68331   0.49973   0.69967   1.000
    Lv2     Lv   0.32298   0.50039   0.30032   1.000
    Lv3     Lv   0.72558   0.51454   0.14897   1.000
    Lv4     Lv   0.22512   0.01411   0.35172   1.000
    Lv5     Lv   0.18326   0.99982   0.80000   1.000
    Lv6     Lv   0.28070   0.48547   0.85101   1.000
    Lv7     Lv   0.15536   0.37836   0.58270   1.000
    Lv8     Lv   0.78106   0.98593   0.64825   1.000
    Lv9     Lv   0.82289   0.00012   0.20002   1.000
    Lv10    Lv   0.65502   0.87785   0.91718   1.000
    Lv11    Lv   0.85123   0.62208   0.41718   1.000
