# CIF file generated by openbabel 2.4.90, see http://openbabel.sf.net
data_I
_chemical_name_common ''
_cell_length_a 9.0755
_cell_length_b 9.1395
_cell_length_c 18.989
_cell_angle_alpha 89.998
_cell_angle_beta 89.993
_cell_angle_gamma 70.226
_space_group_name_H-M_alt 'P 1'
_space_group_name_Hall 'P 1'
loop_
    _symmetry_equiv_pos_as_xyz
    x,y,z
loop_
    _atom_site_label
    _atom_site_type_symbol
    _atom_site_fract_x
    _atom_site_fract_y
    _atom_site_fract_z
    _atom_site_occupancy
    Ga0     Ga   0.03688   0.21092   0.18345   1.000
    Ga1     Ga   0.51815   0.29967   0.17722   1.000
    Ga2     Ga   0.36143   0.15166   0.91034   1.000
    Ga3     Ga   0.46947   0.28907   0.68349   1.000
    Ga4     Ga   0.98817   0.20008   0.67653   1.000
    Ga5     Ga   0.86141   0.65152   0.58955   1.000
    Ga6     Ga   0.96945   0.78890   0.81646   1.000
    Ga7     Ga   0.48809   0.70028   0.82277   1.000
    Ga8     Ga   0.64484   0.84831   0.08958   1.000
    Ga9     Ga   0.53683   0.71103   0.31653   1.000
    Ga10    Ga   0.01798   0.80003   0.32339   1.000
    O11     O    0.24170   0.09603   0.27675   1.000
    Ga12    Ga   0.14488   0.34844   0.41042   1.000
    O13     O    0.10140   0.24339   0.27401   1.000
    O14     O    0.26450   0.40410   0.77676   1.000
    O15     O    0.40466   0.25662   0.77402   1.000
    O16     O    0.76637   0.90558   0.72299   1.000
    O17     O    0.90560   0.75728   0.72567   1.000
    O18     O    0.74162   0.59600   0.22322   1.000
    O19     O    0.60134   0.74339   0.22594   1.000
    Ts20    Ts   0.08786   0.20325   0.16136   1.000
    Ts21    Ts   0.01605   0.15318   0.18405   1.000
    Ts22    Ts   0.98475   0.26751   0.17061   1.000
    Ts23    Ts   0.46250   0.32841   0.19730   1.000
    Ts24    Ts   0.49528   0.27667   0.15013   1.000
    Ts25    Ts   0.53912   0.35453   0.16743   1.000
    Ts26    Ts   0.57377   0.24952   0.19185   1.000
    Ts27    Ts   0.35089   0.13698   0.94023   1.000
    Ts28    Ts   0.33918   0.22376   0.91037   1.000
    Ts29    Ts   0.31389   0.12638   0.89602   1.000
    Ts30    Ts   0.43004   0.11531   0.90205   1.000
    Ts31    Ts   0.41856   0.29688   0.66137   1.000
    Ts32    Ts   0.49013   0.34693   0.68404   1.000
    Ts33    Ts   0.52169   0.23266   0.67059   1.000
    Ts34    Ts   0.04367   0.17139   0.69679   1.000
    Ts35    Ts   0.01115   0.22332   0.64963   1.000
    Ts36    Ts   0.96728   0.14551   0.66621   1.000
    Ts37    Ts   0.93241   0.25009   0.69109   1.000
    Ts38    Ts   0.92998   0.61524   0.59784   1.000
    Ts39    Ts   0.83892   0.72360   0.58948   1.000
    Ts40    Ts   0.81392   0.62618   0.60386   1.000
    Ts41    Ts   0.85086   0.63683   0.55852   1.000
    Ts42    Ts   0.99020   0.84672   0.81590   1.000
    Ts43    Ts   0.02160   0.73243   0.82933   1.000
    Ts44    Ts   0.91843   0.79661   0.83853   1.000
    Ts45    Ts   0.46718   0.64538   0.83255   1.000
    Ts46    Ts   0.43243   0.75041   0.80817   1.000
    Ts47    Ts   0.54374   0.67168   0.80268   1.000
    Ts48    Ts   0.51096   0.72328   0.84986   1.000
    Ts49    Ts   0.57625   0.88467   0.09788   1.000
    Ts50    Ts   0.65545   0.86296   0.05855   1.000
    Ts51    Ts   0.66707   0.77621   0.08957   1.000
    Ts52    Ts   0.69237   0.87363   0.10388   1.000
    Ts53    Ts   0.51617   0.65316   0.31598   1.000
    Ts54    Ts   0.48456   0.76741   0.32943   1.000
    Ts55    Ts   0.58782   0.70334   0.33861   1.000
    Ts56    Ts   0.03886   0.85460   0.33373   1.000
    Ts57    Ts   0.07379   0.75005   0.30888   1.000
    Ts58    Ts   0.96236   0.82864   0.30311   1.000
    Ts59    Ts   0.99516   0.77692   0.35027   1.000
    Ts60    Ts   0.23617   0.06872   0.30174   1.000
    Ts61    Ts   0.16708   0.27633   0.41042   1.000
    Ts62    Ts   0.19237   0.37377   0.39610   1.000
    Ts63    Ts   0.15556   0.36321   0.44141   1.000
    Ts64    Ts   0.07638   0.38489   0.40208   1.000
    Ts65    Ts   0.26990   0.43122   0.80151   1.000
    Ts66    Ts   0.77127   0.93236   0.69808   1.000
    Ts67    Ts   0.73628   0.56885   0.19847   1.000
loop_
    _geom_bond_atom_site_label_1
    _geom_bond_atom_site_label_2
    _geom_bond_distance
    _geom_bond_site_symmetry_2
    _ccdc_geom_bond_type
    O18    O19       1.50917      .   S
    O13    O11       1.50918      .   S
    O16    O17       1.50912      .   S
    O15    O14       1.50912      .   S
    O13    Ga0       1.87237      .   S
    O15    Ga3       1.87248      .   S
    O17    Ga6       1.87235      .   S
    O19    Ga9       1.87254      .   S
    Ga0    Ts20      0.61068      .   S
    Ga0    Ts21      0.61800      .   S
    Ga0    Ts22      0.62060  1_455   S
    Ga1    Ts23      0.61607      .   S
    Ga1    Ts24      0.61766      .   S
    Ga1    Ts25      0.62182      .   S
    Ga1    Ts26      0.62090      .   S
    Ga2    Ts27      0.59825      .   S
    Ga2    Ts28      0.62051      .   S
    Ga2    Ts29      0.61719      .   S
    Ga2    Ts30      0.61875      .   S
    Ga3    Ts31      0.61049      .   S
    Ga3    Ts32      0.61813      .   S
    Ga3    Ts33      0.62054      .   S
    Ga4    Ts34      0.61740  1_655   S
    Ga4    Ts35      0.61609  1_655   S
    Ga4    Ts36      0.62214      .   S
    Ga4    Ts37      0.62032      .   S
    Ga5    Ts38      0.61845      .   S
    Ga5    Ts39      0.62029      .   S
    Ga5    Ts40      0.61705      .   S
    Ga5    Ts41      0.61883      .   S
    Ga6    Ts42      0.61820      .   S
    Ga6    Ts43      0.62037  1_655   S
    Ga6    Ts44      0.61067      .   S
    Ga7    Ts45      0.62185      .   S
    Ga7    Ts46      0.62080      .   S
    Ga7    Ts47      0.61619      .   S
    Ga7    Ts48      0.61762      .   S
    Ga8    Ts49      0.61873      .   S
    Ga8    Ts50      0.61892      .   S
    Ga8    Ts51      0.62046      .   S
    Ga8    Ts52      0.61716      .   S
    Ga9    Ts53      0.61817      .   S
    Ga9    Ts54      0.62056      .   S
    Ga9    Ts55      0.61067      .   S
    Ga10   Ts56      0.62220      .   S
    Ga10   Ts57      0.62018      .   S
    Ga10   Ts58      0.61825  1_455   S
    Ga10   Ts59      0.61452  1_455   S
    O11    Ts60      0.54627      .   S
    Ga12   Ts61      0.62052      .   S
    Ga12   Ts62      0.61713      .   S
    Ga12   Ts63      0.61881      .   S
    Ga12   Ts64      0.61838      .   S
    O14    Ts65      0.54131      .   S
    O16    Ts66      0.54133      .   S
    O18    Ts67      0.54129      .   S
