# CIF file generated by openbabel 2.4.90, see http://openbabel.sf.net
data_I
_chemical_name_common ''
_cell_length_a 9.0755
_cell_length_b 9.1395
_cell_length_c 18.989
_cell_angle_alpha 89.998
_cell_angle_beta 89.993
_cell_angle_gamma 70.226
_space_group_name_H-M_alt 'P 1'
_space_group_name_Hall 'P 1'
loop_
    _symmetry_equiv_pos_as_xyz
    x,y,z
loop_
    _atom_site_label
    _atom_site_type_symbol
    _atom_site_fract_x
    _atom_site_fract_y
    _atom_site_fract_z
    _atom_site_occupancy
    N0      N    0.35126   0.12209   0.08276   1.000
    N1      N    0.68331   0.49973   0.69967   1.000
    N2      N    0.32298   0.50039   0.30032   1.000
    N3      N    0.72558   0.51454   0.14897   1.000
    N4      N    0.22512   0.01411   0.35172   1.000
    N5      N    0.18326   0.99982   0.80000   1.000
    N6      N    0.28070   0.48547   0.85101   1.000
    N7      N    0.15536   0.37836   0.58270   1.000
    N8      N    0.78106   0.98593   0.64825   1.000
    N9      N    0.82289   0.00012   0.20002   1.000
    N10     N    0.65502   0.87785   0.91718   1.000
    N11     N    0.85123   0.62208   0.41718   1.000
    Zr12    Zr   0.62660   0.68347   0.25523   1.000
    O13     O    0.55848   0.63214   0.28526   1.000
    O14     O    0.63908   0.68860   0.31072   1.000
    O15     O    0.52291   0.76068   0.30039   1.000
    O16     O    0.67810   0.60919   0.21138   1.000
    Zr17    Zr   0.88048   0.81725   0.75504   1.000
    O18     O    0.94831   0.86812   0.78512   1.000
    O19     O    0.86756   0.81175   0.81058   1.000
    O20     O    0.98363   0.73954   0.80023   1.000
    O21     O    0.82893   0.89155   0.71099   1.000
    Zr22    Zr   0.37954   0.31660   0.74475   1.000
    O23     O    0.44775   0.36793   0.71474   1.000
    O24     O    0.36724   0.31162   0.68924   1.000
    O25     O    0.48325   0.23938   0.69961   1.000
    O26     O    0.32810   0.39086   0.78860   1.000
    Zr27    Zr   0.36143   0.15166   0.91034   1.000
    O28     O    0.34957   0.13514   0.94396   1.000
    O29     O    0.30795   0.12322   0.89423   1.000
    O30     O    0.33640   0.23278   0.91038   1.000
    O31     O    0.43861   0.11076   0.90101   1.000
    Zr32    Zr   0.98817   0.20008   0.67653   1.000
    O33     O    0.01402   0.22623   0.64627   1.000
    O34     O    0.92544   0.25634   0.69291   1.000
    O35     O    0.05061   0.16781   0.69932   1.000
    O36     O    0.96467   0.13869   0.66492   1.000
    Zr37    Zr   0.12666   0.18345   0.24473   1.000
    O38     O    0.17796   0.10902   0.28885   1.000
    O39     O    0.13912   0.18855   0.18924   1.000
    O40     O    0.05833   0.13222   0.21476   1.000
    O41     O    0.02313   0.26084   0.19965   1.000
    Zr42    Zr   0.51815   0.29967   0.17722   1.000
    O43     O    0.45555   0.33200   0.19981   1.000
    O44     O    0.58072   0.24325   0.19368   1.000
    O45     O    0.49242   0.27380   0.14674   1.000
    O46     O    0.54174   0.36138   0.16621   1.000
    Zr47    Zr   0.01798   0.80003   0.32339   1.000
    O48     O    0.04147   0.86142   0.33502   1.000
    O49     O    0.95541   0.83221   0.30057   1.000
    O50     O    0.08076   0.74380   0.30706   1.000
    O51     O    0.99230   0.77403   0.35363   1.000
    Zr52    Zr   0.14488   0.34844   0.41042   1.000
    O53     O    0.06781   0.38945   0.40104   1.000
    O54     O    0.15690   0.36506   0.44528   1.000
    O55     O    0.19831   0.37694   0.39431   1.000
    O56     O    0.16986   0.26732   0.41042   1.000
    Zr57    Zr   0.86141   0.65152   0.58955   1.000
    O58     O    0.84954   0.63500   0.55464   1.000
    O59     O    0.93856   0.61070   0.59888   1.000
    O60     O    0.80798   0.62301   0.60565   1.000
    O61     O    0.83611   0.73262   0.58947   1.000
    Zr62    Zr   0.48809   0.70028   0.82277   1.000
    O63     O    0.55070   0.66810   0.80016   1.000
    O64     O    0.42547   0.75668   0.80634   1.000
    O65     O    0.51382   0.72616   0.85325   1.000
    O66     O    0.46456   0.63852   0.83378   1.000
    Zr67    Zr   0.64484   0.84831   0.08958   1.000
    O68     O    0.69831   0.87679   0.10567   1.000
    O69     O    0.56767   0.88921   0.09892   1.000
    O70     O    0.65677   0.86479   0.05467   1.000
    O71     O    0.66985   0.76720   0.08956   1.000
loop_
    _geom_bond_atom_site_label_1
    _geom_bond_atom_site_label_2
    _geom_bond_distance
    _geom_bond_site_symmetry_2
    _ccdc_geom_bond_type
    Zr12   O13       1.06006      .   S
    N2     O13       2.80010      .   S
    Zr12   O14       1.06249      .   S
    N11    O14       2.71528      .   S
    Zr12   O15       1.29203      .   S
    N4     O15       3.06319  1_545   S
    Zr12   O16       1.07604      .   S
    N3     O16       1.44437      .   S
    Zr17   O18       1.05599      .   S
    N5     O18       2.79497  1_455   S
    Zr17   O19       1.06424      .   S
    N10    O19       2.71914      .   S
    Zr17   O20       1.29133      .   S
    N6     O20       3.05860  1_455   S
    Zr17   O21       1.07924      .   S
    N8     O21       1.44863      .   S
    Zr22   O23       1.06043      .   S
    N1     O23       2.80096      .   S
    Zr22   O24       1.06268      .   S
    N7     O24       2.71477      .   S
    Zr22   O25       1.29204      .   S
    N8     O25       3.06347  1_565   S
    Zr22   O26       1.07586      .   S
    N6     O26       1.44413      .   S
    Zr27   O28       0.67303      .   S
    N0     O28       2.63805  1_554   S
    Zr27   O29       0.69434      .   S
    N5     O29       2.57266  1_565   S
    Zr27   O30       0.69807      .   S
    N6     O30       2.46374      .   S
    Zr27   O31       0.69609      .   S
    N10    O31       2.37787  1_565   S
    Zr32   O33       0.69310  1_655   S
    N7     O33       2.49836      .   S
    Zr32   O34       0.69786      .   S
    N1     O34       2.54681      .   S
    Zr32   O35       0.69458  1_655   S
    N5     O35       2.49215  1_565   S
    Zr32   O36       0.69990      .   S
    N8     O36       2.52988  1_565   S
    Zr37   O38       1.08034      .   S
    N4     O38       1.45233      .   S
    Zr37   O39       1.06249      .   S
    N0     O39       2.71521      .   S
    Zr37   O40       1.06024      .   S
    N9     O40       2.80129  1_655   S
    Zr37   O41       1.29094      .   S
    N3     O41       3.05912  1_655   S
    Zr42   O43       0.69308      .   S
    N2     O43       2.49117      .   S
    Zr42   O44       0.69851      .   S
    N9     O44       2.54520      .   S
    Zr42   O45       0.69487      .   S
    N0     O45       2.49853      .   S
    Zr42   O46       0.69954      .   S
    N3     O46       2.53577      .   S
    Zr47   O48       0.69997      .   S
    N4     O48       2.52976  1_545   S
    Zr47   O49       0.69553  1_455   S
    N9     O49       2.48980  1_545   S
    Zr47   O50       0.69770      .   S
    N2     O50       2.54734      .   S
    Zr47   O51       0.69134  1_455   S
    N11    O51       2.49534      .   S
    Zr52   O53       0.69568      .   S
    N11    O53       2.37701  1_655   S
    Zr52   O54       0.69616      .   S
    N7     O54       2.61198      .   S
    Zr52   O55       0.69427      .   S
    N2     O55       2.56934      .   S
    Zr52   O56       0.69809      .   S
    N4     O56       2.46260      .   S
    Zr57   O58       0.69619      .   S
    N11    O58       2.61271      .   S
    Zr57   O59       0.69575      .   S
    N7     O59       2.37653  1_455   S
    Zr57   O60       0.69418      .   S
    N1     O60       2.56893      .   S
    Zr57   O61       0.69783      .   S
    N8     O61       2.46435      .   S
    Zr62   O63       0.69321      .   S
    N1     O63       2.49087      .   S
    Zr62   O64       0.69840      .   S
    N5     O64       2.54550      .   S
    Zr62   O65       0.69482      .   S
    N10    O65       2.49814      .   S
    Zr62   O66       0.69958      .   S
    N6     O66       2.53522      .   S
    Zr67   O68       0.69430      .   S
    N9     O68       2.57322  1_545   S
    Zr67   O69       0.69607      .   S
    N0     O69       2.37765  1_545   S
    Zr67   O70       0.69629      .   S
    N10    O70       2.61337  1_556   S
    Zr67   O71       0.69802      .   S
    N3     O71       2.46385      .   S
