# CIF file generated by openbabel 2.4.90, see http://openbabel.sf.net
data_I
_chemical_name_common ''
_cell_length_a 9.0755
_cell_length_b 9.1395
_cell_length_c 18.989
_cell_angle_alpha 89.998
_cell_angle_beta 89.993
_cell_angle_gamma 70.226
_space_group_name_H-M_alt 'P 1'
_space_group_name_Hall 'P 1'
loop_
    _symmetry_equiv_pos_as_xyz
    x,y,z
loop_
    _atom_site_label
    _atom_site_type_symbol
    _atom_site_fract_x
    _atom_site_fract_y
    _atom_site_fract_z
    _atom_site_occupancy
    Zr0     Zr   0.14488   0.34844   0.41042   1.000
    Zr1     Zr   0.03688   0.21092   0.18345   1.000
    Zr2     Zr   0.51815   0.29967   0.17722   1.000
    Zr3     Zr   0.36143   0.15166   0.91034   1.000
    Zr4     Zr   0.46947   0.28907   0.68349   1.000
    Zr5     Zr   0.98817   0.20008   0.67653   1.000
    Zr6     Zr   0.86141   0.65152   0.58955   1.000
    Zr7     Zr   0.96945   0.78890   0.81646   1.000
    Zr8     Zr   0.48809   0.70028   0.82277   1.000
    Zr9     Zr   0.64484   0.84831   0.08958   1.000
    Zr10    Zr   0.53683   0.71103   0.31653   1.000
    Zr11    Zr   0.01798   0.80003   0.32339   1.000
    Zr12    Zr   0.24170   0.09603   0.27675   1.000
    Zr13    Zr   0.10140   0.24339   0.27401   1.000
    Zr14    Zr   0.26450   0.40410   0.77676   1.000
    Zr15    Zr   0.40466   0.25662   0.77402   1.000
    Zr16    Zr   0.76637   0.90558   0.72299   1.000
    Zr17    Zr   0.90560   0.75728   0.72567   1.000
    Zr18    Zr   0.74162   0.59600   0.22322   1.000
    Zr19    Zr   0.60134   0.74339   0.22594   1.000
    O20     O    0.67148   0.66970   0.22458   1.000
    O21     O    0.17155   0.16971   0.27538   1.000
    O22     O    0.83599   0.83143   0.72433   1.000
    O23     O    0.33458   0.33036   0.77538   1.000
    O24     O    0.06914   0.22716   0.22873   1.000
    O25     O    0.43707   0.27285   0.72875   1.000
    O26     O    0.93753   0.77309   0.77106   1.000
    O27     O    0.56908   0.72721   0.27123   1.000
    N28     N    0.35126   0.12209   0.08276   1.000
    O29     O    0.49050   0.93011   0.10826   1.000
    O30     O    0.46669   0.24792   0.11627   1.000
    O31     O    0.33771   0.11862   0.97758   1.000
    O32     O    0.15159   0.19366   0.13375   1.000
    N33     N    0.68331   0.49973   0.69967   1.000
    O34     O    0.75455   0.59451   0.62175   1.000
    O35     O    0.51595   0.41927   0.68473   1.000
    O36     O    0.61331   0.63593   0.77756   1.000
    O37     O    0.86272   0.31259   0.70928   1.000
    N38     N    0.32298   0.50039   0.30032   1.000
    O39     O    0.14355   0.68757   0.29073   1.000
    O40     O    0.39294   0.36432   0.22239   1.000
    O41     O    0.25174   0.40545   0.37820   1.000
    O42     O    0.49036   0.58081   0.31530   1.000
    N43     N    0.72558   0.51454   0.14897   1.000
    O44     O    0.72959   0.53490   0.16753   1.000
    O45     O    0.91959   0.33824   0.15457   1.000
    O46     O    0.69486   0.68609   0.08955   1.000
    O47     O    0.56533   0.42309   0.15519   1.000
    N48     N    0.22512   0.01411   0.35172   1.000
    O49     O    0.22926   0.03459   0.33297   1.000
    O50     O    0.19483   0.18620   0.41043   1.000
    O51     O    0.41922   0.83788   0.34555   1.000
    O52     O    0.06497   0.92281   0.34664   1.000
    N53     N    0.18326   0.99982   0.80000   1.000
    O54     O    0.25447   0.09478   0.87812   1.000
    O55     O    0.01614   0.91899   0.81519   1.000
    O56     O    0.36285   0.81307   0.78992   1.000
    O57     O    0.11306   0.13553   0.72212   1.000
    N58     N    0.28070   0.48547   0.85101   1.000
    O59     O    0.27665   0.46513   0.83245   1.000
    O60     O    0.08679   0.66184   0.84542   1.000
    O61     O    0.31137   0.31390   0.91041   1.000
    O62     O    0.44104   0.57676   0.84478   1.000
    N63     N    0.15536   0.37836   0.58270   1.000
    O64     O    0.01571   0.56988   0.60821   1.000
    O65     O    0.16893   0.38168   0.48015   1.000
    O66     O    0.03988   0.25237   0.61600   1.000
    O67     O    0.35493   0.30664   0.63373   1.000
    N68     N    0.78106   0.98593   0.64825   1.000
    O69     O    0.77739   0.96584   0.66694   1.000
    O70     O    0.94117   0.07731   0.65330   1.000
    O71     O    0.81082   0.81372   0.58940   1.000
    O72     O    0.58697   0.16216   0.65446   1.000
    N73     N    0.82289   0.00012   0.20002   1.000
    O74     O    0.89285   0.86439   0.27775   1.000
    O75     O    0.64329   0.18682   0.21013   1.000
    O76     O    0.75178   0.90527   0.12176   1.000
    O77     O    0.99001   0.08100   0.18479   1.000
    N78     N    0.65502   0.87785   0.91718   1.000
    O79     O    0.85465   0.80624   0.86612   1.000
    O80     O    0.53955   0.75203   0.88372   1.000
    O81     O    0.66870   0.88127   0.01976   1.000
    O82     O    0.51579   0.06987   0.89169   1.000
    N83     N    0.85123   0.62208   0.41718   1.000
    O84     O    0.83768   0.61848   0.51974   1.000
    O85     O    0.99075   0.43046   0.39166   1.000
    O86     O    0.65156   0.69373   0.36621   1.000
    O87     O    0.96663   0.74802   0.38387   1.000
loop_
    _geom_bond_atom_site_label_1
    _geom_bond_atom_site_label_2
    _geom_bond_distance
    _geom_bond_site_symmetry_2
    _ccdc_geom_bond_type
    Zr18   O20       0.75458      .   S
    Zr19   O20       0.75458      .   S
    Zr13   O21       0.75459      .   S
    Zr12   O21       0.75459      .   S
    Zr16   O22       0.75456      .   S
    Zr17   O22       0.75456      .   S
    Zr15   O23       0.75456      .   S
    Zr14   O23       0.75456      .   S
    Zr13   O24       0.93618      .   S
    Zr1    O24       0.93618      .   S
    Zr15   O25       0.93624      .   S
    Zr4    O25       0.93624      .   S
    Zr17   O26       0.93617      .   S
    Zr7    O26       0.93617      .   S
    Zr19   O27       0.93627      .   S
    Zr10   O27       0.93627      .   S
    N28    O29       1.84654  1_545   S
    Zr9    O29       1.39215      .   S
    N28    O30       1.90798      .   S
    Zr2    O30       1.38974      .   S
    N28    O31       2.00178  1_554   S
    Zr3    O31       1.34607      .   S
    N28    O32       1.96138      .   S
    Zr1    O32       1.37402      .   S
    N33    O34       1.93299      .   S
    Zr6    O34       1.38836      .   S
    N33    O35       1.91937      .   S
    Zr4    O35       1.39078      .   S
    N33    O36       1.89871      .   S
    Zr8    O36       1.38643      .   S
    N33    O37       1.93016      .   S
    Zr5    O37       1.39572      .   S
    N38    O39       1.93049      .   S
    Zr11   O39       1.39541      .   S
    N38    O40       1.89879      .   S
    Zr2    O40       1.38616      .   S
    N38    O41       1.93319      .   S
    Zr0    O41       1.38853      .   S
    N38    O42       1.91937      .   S
    Zr10   O42       1.39087      .   S
    N43    O44       0.40597      .   S
    Zr18   O44       1.21790      .   S
    N43    O45       1.94632      .   S
    Zr1    O45       1.39634  1_455   S
    N43    O46       1.87444      .   S
    Zr9    O46       1.39603      .   S
    N43    O47       1.91049      .   S
    Zr2    O47       1.39909      .   S
    N48    O49       0.40971      .   S
    Zr12   O49       1.22912      .   S
    N48    O50       1.87080      .   S
    Zr0    O50       1.39618      .   S
    N48    O51       1.94716  1_545   S
    Zr10   O51       1.39627      .   S
    N48    O52       1.90756  1_545   S
    Zr11   O52       1.39995      .   S
    N53    O54       1.93684  1_565   S
    Zr3    O54       1.38868      .   S
    N53    O55       1.92016      .   S
    Zr7    O55       1.39094  1_655   S
    N53    O56       1.92975      .   S
    Zr8    O56       1.39679      .   S
    N53    O57       1.89657  1_565   S
    Zr5    O57       1.38916  1_655   S
    N58    O59       0.40598      .   S
    Zr14   O59       1.21795      .   S
    N58    O60       1.94603      .   S
    Zr7    O60       1.39583  1_655   S
    N58    O61       1.87437      .   S
    Zr3    O61       1.39614      .   S
    N58    O62       1.91024      .   S
    Zr8    O62       1.39917      .   S
    N63    O64       1.84497      .   S
    Zr6    O64       1.39151  1_655   S
    N63    O65       1.95197      .   S
    Zr0    O65       1.39232      .   S
    N63    O66       1.90798      .   S
    Zr5    O66       1.38619  1_655   S
    N63    O67       1.96115      .   S
    Zr4    O67       1.37361      .   S
    N68    O69       0.40600      .   S
    Zr16   O69       1.21800      .   S
    N68    O70       1.90764  1_565   S
    Zr5    O70       1.39981      .   S
    N68    O71       1.87400      .   S
    Zr6    O71       1.39566      .   S
    N68    O72       1.94711  1_565   S
    Zr4    O72       1.39622      .   S
    N73    O74       1.89423  1_545   S
    Zr11   O74       1.39105  1_455   S
    N73    O75       1.92961      .   S
    Zr2    O75       1.39702      .   S
    N73    O76       1.93783  1_545   S
    Zr9    O76       1.38861      .   S
    N73    O77       1.92051      .   S
    Zr1    O77       1.39051  1_455   S
    N78    O79       1.96163      .   S
    Zr7    O79       1.37402      .   S
    N78    O80       1.90780      .   S
    Zr8    O80       1.38965      .   S
    N78    O81       1.95285  1_556   S
    Zr9    O81       1.39258      .   S
    N78    O82       1.84672  1_565   S
    Zr3    O82       1.39218      .   S
    N83    O84       1.95229      .   S
    Zr6    O84       1.39238      .   S
    N83    O85       1.84519      .   S
    Zr0    O85       1.39136  1_455   S
    N83    O86       1.96138      .   S
    Zr10   O86       1.37401      .   S
    N83    O87       1.90719      .   S
    Zr11   O87       1.38267  1_455   S
