# CIF file generated by openbabel 2.4.90, see http://openbabel.sf.net
data_I
_chemical_name_common ''
_cell_length_a 13.07
_cell_length_b 15.248
_cell_length_c 19.142
_cell_angle_alpha 89.984
_cell_angle_beta 89.996
_cell_angle_gamma 89.964
_space_group_name_H-M_alt 'P 1'
_space_group_name_Hall 'P 1'
loop_
    _symmetry_equiv_pos_as_xyz
    x,y,z
loop_
    _atom_site_label
    _atom_site_type_symbol
    _atom_site_fract_x
    _atom_site_fract_y
    _atom_site_fract_z
    _atom_site_occupancy
    Zr0     Zr   0.32851   0.22740   0.83137   1.000
    Zr1     Zr   0.17105   0.77199   0.33125   1.000
    Zr2     Zr   0.67147   0.72728   0.66857   1.000
    Zr3     Zr   0.82893   0.27224   0.16871   1.000
    Zr4     Zr   0.67146   0.77262   0.16861   1.000
    Zr5     Zr   0.82892   0.22803   0.66873   1.000
    Zr6     Zr   0.32850   0.27274   0.33140   1.000
    Zr7     Zr   0.17105   0.72778   0.83127   1.000
    N8      N    0.99754   0.03473   0.24283   1.000
    O9      O    0.93321   0.12173   0.21639   1.000
    N10     N    0.00316   0.96608   0.75715   1.000
    O11     O    0.06713   0.87869   0.78359   1.000
    N12     N    0.96550   0.77858   0.51798   1.000
    O13     O    0.04453   0.77746   0.45093   1.000
    O14     O    0.86053   0.74793   0.58514   1.000
    N15     N    0.46387   0.72109   0.48220   1.000
    O16     O    0.54392   0.72210   0.54904   1.000
    O17     O    0.35926   0.75158   0.41502   1.000
    N18     N    0.50361   0.53401   0.24288   1.000
    O19     O    0.56764   0.62152   0.21639   1.000
    N20     N    0.03573   0.27881   0.98224   1.000
    O21     O    0.95609   0.27772   0.04916   1.000
    O22     O    0.14008   0.24809   0.91495   1.000
    N23     N    0.96548   0.72122   0.01800   1.000
    O24     O    0.04450   0.72231   0.95095   1.000
    O25     O    0.86051   0.75193   0.08516   1.000
    N26     N    0.46374   0.77879   0.98254   1.000
    O27     O    0.35918   0.74828   0.91522   1.000
    O28     O    0.54382   0.77778   0.04924   1.000
    N29     N    0.03571   0.22144   0.48200   1.000
    O30     O    0.14007   0.25209   0.41484   1.000
    O31     O    0.95607   0.22256   0.54905   1.000
    N32     N    0.00318   0.53385   0.25720   1.000
    O33     O    0.06715   0.62117   0.28362   1.000
    N34     N    0.50368   0.96597   0.74294   1.000
    O35     O    0.56768   0.87842   0.71642   1.000
    N36     N    0.53611   0.27894   0.51776   1.000
    O37     O    0.64072   0.24845   0.58495   1.000
    O38     O    0.45605   0.27792   0.45093   1.000
    N39     N    0.53625   0.22124   0.01767   1.000
    O40     O    0.45617   0.22224   0.95085   1.000
    O41     O    0.64080   0.25174   0.08487   1.000
    N42     N    0.99752   0.46617   0.74278   1.000
    O43     O    0.93318   0.37885   0.71636   1.000
    N44     N    0.49629   0.03483   0.25703   1.000
    O45     O    0.43229   0.12199   0.28356   1.000
    N46     N    0.49635   0.46602   0.75709   1.000
    O47     O    0.43233   0.37851   0.78358   1.000
    O48     O    0.93112   0.06734   0.72426   1.000
    O49     O    0.06919   0.56731   0.77568   1.000
    O50     O    0.06922   0.93308   0.27572   1.000
    O51     O    0.43170   0.06716   0.77582   1.000
    O52     O    0.56830   0.56715   0.72418   1.000
    O53     O    0.93114   0.43271   0.22430   1.000
    O54     O    0.56826   0.93325   0.22415   1.000
    O55     O    0.43167   0.43287   0.27579   1.000
loop_
    _geom_bond_atom_site_label_1
    _geom_bond_atom_site_label_2
    _geom_bond_distance
    _geom_bond_site_symmetry_2
    _ccdc_geom_bond_type
    N8     O9        1.64960      .   S
    Zr3    O9        2.82010      .   S
    N10    O11       1.65206      .   S
    Zr7    O11       2.82276      .   S
    N12    O13       1.64748  1_655   S
    Zr1    O13       2.82651      .   S
    N12    O14       1.93754      .   S
    Zr2    O14       2.95895      .   S
    N15    O16       1.65288      .   S
    Zr2    O16       2.83217      .   S
    N15    O17       1.93350      .   S
    Zr1    O17       2.95273      .   S
    N18    O19       1.65495      .   S
    Zr4    O19       2.82654      .   S
    N20    O21       1.65063  1_456   S
    Zr3    O21       2.82932      .   S
    N20    O22       1.93332      .   S
    Zr0    O22       2.95359      .   S
    N23    O24       1.64751  1_654   S
    Zr7    O24       2.82663      .   S
    N23    O25       1.93736      .   S
    Zr4    O25       2.95895      .   S
    N26    O27       1.93536      .   S
    Zr7    O27       2.95437      .   S
    N26    O28       1.65109  1_556   S
    Zr4    O28       2.83036      .   S
    N29    O30       1.93186      .   S
    Zr6    O30       2.95226      .   S
    N29    O31       1.65253  1_455   S
    Zr5    O31       2.83123      .   S
    N32    O33       1.65209      .   S
    Zr1    O33       2.82299      .   S
    N34    O35       1.65485      .   S
    Zr2    O35       2.82613      .   S
    N36    O37       1.93352      .   S
    Zr5    O37       2.95278      .   S
    N36    O38       1.65289      .   S
    Zr6    O38       2.83218      .   S
    N39    O40       1.65289  1_554   S
    Zr0    O40       2.83221      .   S
    N39    O41       1.93382      .   S
    Zr3    O41       2.95312      .   S
    N42    O43       1.65451      .   S
    Zr5    O43       2.82529      .   S
    N44    O45       1.65009      .   S
    Zr6    O45       2.82130      .   S
    N46    O47       1.65495      .   S
    Zr0    O47       2.82653      .   S
    Zr5    O48       2.98526      .   S
    N10    O48       1.91425  1_465   S
    Zr7    O49       2.98283      .   S
    N42    O49       1.91184  1_655   S
    Zr1    O50       2.98812      .   S
    N8     O50       1.91682  1_645   S
    Zr0    O51       2.98608      .   S
    N34    O51       1.91320  1_565   S
    Zr2    O52       2.98598      .   S
    N46    O52       1.91316      .   S
    Zr3    O53       2.98493      .   S
    N32    O53       1.91417  1_455   S
    Zr4    O54       2.99087      .   S
    N44    O54       1.91795  1_545   S
    Zr6    O55       2.98597      .   S
    N18    O55       1.91316      .   S
