# CIF file generated by openbabel 2.4.90, see http://openbabel.sf.net
data_I
_chemical_name_common ''
_cell_length_a 13.07
_cell_length_b 15.248
_cell_length_c 19.142
_cell_angle_alpha 89.984
_cell_angle_beta 89.996
_cell_angle_gamma 89.964
_space_group_name_H-M_alt 'P 1'
_space_group_name_Hall 'P 1'
loop_
    _symmetry_equiv_pos_as_xyz
    x,y,z
loop_
    _atom_site_label
    _atom_site_type_symbol
    _atom_site_fract_x
    _atom_site_fract_y
    _atom_site_fract_z
    _atom_site_occupancy
    C0      C    0.32851   0.22740   0.83137   1.000
    C1      C    0.17105   0.77199   0.33125   1.000
    C2      C    0.67147   0.72728   0.66857   1.000
    C3      C    0.82893   0.27224   0.16871   1.000
    C4      C    0.67146   0.77262   0.16861   1.000
    C5      C    0.82892   0.22803   0.66873   1.000
    C6      C    0.32850   0.27274   0.33140   1.000
    C7      C    0.17105   0.72778   0.83127   1.000
    C8      C    0.50901   0.27805   0.73109   1.000
    C9      C    0.61610   0.40649   0.69206   1.000
    C10     C    0.41496   0.57488   0.81011   1.000
    C11     C    0.31378   0.44111   0.84268   1.000
    C12     C    0.46745   0.09092   0.91700   1.000
    C13     C    0.60218   0.08890   0.01201   1.000
    C14     C    0.51299   0.35227   0.06437   1.000
    C15     C    0.38454   0.34559   0.96573   1.000
    C16     C    0.00000   0.72189   0.23119   1.000
    C17     C    0.88280   0.59380   0.19234   1.000
    C18     C    0.08343   0.42472   0.31019   1.000
    C19     C    0.18525   0.55818   0.34266   1.000
    C20     C    0.03179   0.90874   0.41668   1.000
    C21     C    0.89802   0.91084   0.51233   1.000
    C22     C    0.00000   0.64779   0.56491   1.000
    C23     C    0.11586   0.65442   0.46571   1.000
    C24     C    0.49106   0.77800   0.76895   1.000
    C25     C    0.38399   0.90653   0.80801   1.000
    C26     C    0.58507   0.07480   0.68993   1.000
    C27     C    0.68619   0.94092   0.65729   1.000
    C28     C    0.53284   0.59080   0.58297   1.000
    C29     C    0.39812   0.58874   0.48795   1.000
    C30     C    0.48700   0.85206   0.43538   1.000
    C31     C    0.61544   0.84541   0.53404   1.000
    C32     C    0.00941   0.22193   0.26886   1.000
    C33     C    0.11713   0.09371   0.30774   1.000
    C34     C    0.91660   0.92491   0.18983   1.000
    C35     C    0.81482   0.05853   0.15730   1.000
    C36     C    0.96826   0.40899   0.08327   1.000
    C37     C    0.10197   0.41101   0.98760   1.000
    C38     C    0.01170   0.14807   0.93507   1.000
    C39     C    0.88418   0.15480   0.03428   1.000
    C40     C    0.49094   0.72198   0.26887   1.000
    C41     C    0.38386   0.59353   0.30790   1.000
    C42     C    0.58501   0.42514   0.18986   1.000
    C43     C    0.68619   0.55891   0.15729   1.000
    C44     C    0.53253   0.90911   0.08297   1.000
    C45     C    0.39780   0.91112   0.98795   1.000
    C46     C    0.48700   0.64776   0.93560   1.000
    C47     C    0.61545   0.65445   0.03424   1.000
    C48     C    0.00943   0.27814   0.76880   1.000
    C49     C    0.11717   0.40622   0.80763   1.000
    C50     C    0.91654   0.57530   0.68979   1.000
    C51     C    0.81472   0.44185   0.65732   1.000
    C52     C    0.96820   0.09129   0.58330   1.000
    C53     C    0.10197   0.08918   0.48766   1.000
    C54     C    0.01166   0.35223   0.43506   1.000
    C55     C    0.88412   0.34560   0.53427   1.000
    C56     C    0.50891   0.22201   0.23101   1.000
    C57     C    0.61598   0.09348   0.19195   1.000
    C58     C    0.41490   0.92523   0.31005   1.000
    C59     C    0.31378   0.05910   0.34268   1.000
    C60     C    0.46717   0.40922   0.41698   1.000
    C61     C    0.60190   0.41127   0.51199   1.000
    C62     C    0.51296   0.14798   0.56460   1.000
    C63     C    0.38451   0.15463   0.46594   1.000
    C64     C    0.00000   0.77810   0.73111   1.000
    C65     C    0.88285   0.90631   0.69223   1.000
    C66     C    0.08337   0.07511   0.81016   1.000
    C67     C    0.18516   0.94150   0.84267   1.000
    C68     C    0.03173   0.59103   0.91671   1.000
    C69     C    0.89801   0.58901   0.01237   1.000
    C70     C    0.00000   0.85196   0.06490   1.000
    C71     C    0.11578   0.84524   0.96570   1.000
    C72     C    0.49132   0.34481   0.74739   1.000
    C73     C    0.55049   0.41570   0.72634   1.000
    C74     C    0.52442   0.49999   0.74905   1.000
    C75     C    0.43838   0.51017   0.79186   1.000
    C76     C    0.38204   0.43613   0.81023   1.000
    C77     C    0.58588   0.57773   0.72456   1.000
    C78     C    0.48118   0.14752   0.95047   1.000
    C79     C    0.55429   0.14630   0.00313   1.000
    C80     C    0.56829   0.22125   0.04414   1.000
    C81     C    0.50516   0.29379   0.03220   1.000
    C82     C    0.43448   0.29036   0.97789   1.000
    C83     C    0.65535   0.22475   0.09567   1.000
    C84     C    0.00793   0.65506   0.24752   1.000
    C85     C    0.94841   0.58437   0.22658   1.000
    C86     C    0.97414   0.49998   0.24927   1.000
    C87     C    0.06023   0.48951   0.29197   1.000
    C88     C    0.11694   0.56337   0.31027   1.000
    C89     C    0.91241   0.42244   0.22468   1.000
    C90     C    0.01849   0.85222   0.45035   1.000
    C91     C    0.94596   0.85349   0.50337   1.000
    C92     C    0.93256   0.77865   0.54463   1.000
    C93     C    0.00000   0.70619   0.53258   1.000
    C94     C    0.06583   0.70954   0.47794   1.000
    C95     C    0.84593   0.77499   0.59648   1.000
    C96     C    0.50874   0.84476   0.75266   1.000
    C97     C    0.44956   0.91570   0.77370   1.000
    C98     C    0.47565   0.99997   0.75101   1.000
    C99     C    0.56164   0.01009   0.70815   1.000
    C100    C    0.61797   0.93600   0.68979   1.000
    C101    C    0.41411   0.07774   0.77546   1.000
    C102    C    0.51903   0.64739   0.54945   1.000
    C103    C    0.44593   0.64614   0.49679   1.000
    C104    C    0.43182   0.72108   0.45573   1.000
    C105    C    0.49490   0.79360   0.46759   1.000
    C106    C    0.56556   0.79020   0.52192   1.000
    C107    C    0.34475   0.72462   0.40422   1.000
    C108    C    0.99202   0.15513   0.25253   1.000
    C109    C    0.05156   0.08437   0.27347   1.000
    C110    C    0.02581   0.00003   0.25079   1.000
    C111    C    0.93979   0.00000   0.20803   1.000
    C112    C    0.88308   0.06360   0.18975   1.000
    C113    C    0.08761   0.92242   0.27536   1.000
    C114    C    0.98154   0.35247   0.04960   1.000
    C115    C    0.05405   0.35372   0.00000   1.000
    C116    C    0.06744   0.27886   0.95533   1.000
    C117    C    0.00428   0.20646   0.96739   1.000
    C118    C    0.93420   0.20988   0.02204   1.000
    C119    C    0.15402   0.27510   0.90345   1.000
    C120    C    0.50863   0.65522   0.25257   1.000
    C121    C    0.44947   0.58432   0.27362   1.000
    C122    C    0.47554   0.50003   0.25092   1.000
    C123    C    0.56159   0.48985   0.20811   1.000
    C124    C    0.61792   0.56389   0.18974   1.000
    C125    C    0.41409   0.42229   0.27541   1.000
    C126    C    0.51880   0.85251   0.04949   1.000
    C127    C    0.44569   0.85373   0.00000   1.000
    C128    C    0.43169   0.77878   0.95582   1.000
    C129    C    0.49484   0.70624   0.96777   1.000
    C130    C    0.56550   0.70967   0.02208   1.000
    C131    C    0.34464   0.77527   0.90430   1.000
    C132    C    0.99204   0.34496   0.75245   1.000
    C133    C    0.05155   0.41566   0.77341   1.000
    C134    C    0.02583   0.50004   0.75071   1.000
    C135    C    0.93973   0.51051   0.70801   1.000
    C136    C    0.88304   0.43666   0.68971   1.000
    C137    C    0.08755   0.57758   0.77530   1.000
    C138    C    0.98150   0.14781   0.54964   1.000
    C139    C    0.05402   0.14653   0.49661   1.000
    C140    C    0.06743   0.22138   0.45535   1.000
    C141    C    0.00426   0.29383   0.46739   1.000
    C142    C    0.93415   0.29048   0.52204   1.000
    C143    C    0.15405   0.22503   0.40350   1.000
    C144    C    0.49122   0.15526   0.24730   1.000
    C145    C    0.55041   0.08432   0.22627   1.000
    C146    C    0.52432   0.00005   0.24896   1.000
    C147    C    0.43834   0.00000   0.29183   1.000
    C148    C    0.38199   0.06402   0.31017   1.000
    C149    C    0.58587   0.92228   0.22452   1.000
    C150    C    0.48099   0.35262   0.45049   1.000
    C151    C    0.55405   0.35389   0.50318   1.000
    C152    C    0.56817   0.27894   0.54422   1.000
    C153    C    0.50505   0.20644   0.53239   1.000
    C154    C    0.43444   0.20983   0.47804   1.000
    C155    C    0.65521   0.27541   0.59576   1.000
    C156    C    0.00796   0.84489   0.74745   1.000
    C157    C    0.94842   0.91565   0.72650   1.000
    C158    C    0.97416   0.99999   0.74919   1.000
    C159    C    0.06019   0.01035   0.79194   1.000
    C160    C    0.11689   0.93642   0.81024   1.000
    C161    C    0.91237   0.07760   0.72462   1.000
    C162    C    0.01843   0.64756   0.95037   1.000
    C163    C    0.94594   0.64631   0.00341   1.000
    C164    C    0.93253   0.72117   0.04464   1.000
    C165    C    0.00000   0.79357   0.03259   1.000
    C166    C    0.06575   0.79016   0.97793   1.000
    C167    C    0.84596   0.72492   0.09654   1.000
    C168    C    0.40811   0.35459   0.78878   1.000
    C169    C    0.42366   0.21910   0.93669   1.000
    C170    C    0.09120   0.64499   0.28881   1.000
    C171    C    0.07605   0.78069   0.43651   1.000
    C172    C    0.59190   0.85447   0.71121   1.000
    C173    C    0.57647   0.71896   0.56319   1.000
    C174    C    0.90881   0.14520   0.21118   1.000
    C175    C    0.92398   0.28101   0.06347   1.000
    C176    C    0.59185   0.64543   0.21119   1.000
    C177    C    0.57633   0.78093   0.06328   1.000
    C178    C    0.90876   0.35503   0.71117   1.000
    C179    C    0.92393   0.21933   0.56348   1.000
    C180    C    0.40808   0.14556   0.28877   1.000
    C181    C    0.42349   0.28108   0.43679   1.000
    C182    C    0.09117   0.85483   0.78879   1.000
    C183    C    0.07601   0.71902   0.93652   1.000
    C184    C    0.56899   0.65201   0.75301   1.000
    C185    C    0.64907   0.56653   0.67495   1.000
    C186    C    0.66177   0.29225   0.13543   1.000
    C187    C    0.71988   0.16305   0.09498   1.000
    C188    C    0.92914   0.34804   0.25315   1.000
    C189    C    0.84942   0.43374   0.17503   1.000
    C190    C    0.83962   0.70728   0.63603   1.000
    C191    C    0.78144   0.83674   0.59618   1.000
    C192    C    0.43099   0.15203   0.74701   1.000
    C193    C    0.35093   0.06657   0.82507   1.000
    C194    C    0.33823   0.79215   0.36444   1.000
    C195    C    0.28023   0.66297   0.40494   1.000
    C196    C    0.07085   0.84803   0.24693   1.000
    C197    C    0.15060   0.93366   0.32500   1.000
    C198    C    0.16035   0.20734   0.86397   1.000
    C199    C    0.21847   0.33682   0.90364   1.000
    C200    C    0.43099   0.34801   0.24697   1.000
    C201    C    0.35090   0.43348   0.32502   1.000
    C202    C    0.33821   0.70776   0.86454   1.000
    C203    C    0.28010   0.83697   0.90498   1.000
    C204    C    0.07083   0.65198   0.74684   1.000
    C205    C    0.15055   0.56627   0.82495   1.000
    C206    C    0.16035   0.29274   0.36395   1.000
    C207    C    0.21854   0.16327   0.40380   1.000
    C208    C    0.56898   0.84799   0.25297   1.000
    C209    C    0.64904   0.93344   0.17491   1.000
    C210    C    0.66175   0.20788   0.63552   1.000
    C211    C    0.71976   0.33704   0.59501   1.000
    C212    C    0.92912   0.15199   0.75305   1.000
    C213    C    0.84937   0.06636   0.67498   1.000
    C214    C    0.83962   0.79268   0.13601   1.000
    C215    C    0.78150   0.66321   0.09633   1.000
    O216    O    0.01780   0.35309   0.02480   1.000
    O217    O    0.06075   0.31629   0.97766   1.000
    O218    O    0.07801   0.38236   0.99380   1.000
    O219    O    0.48225   0.85312   0.02475   1.000
    O220    O    0.43869   0.81625   0.97791   1.000
    O221    O    0.42175   0.88242   0.99398   1.000
    O222    O    0.57824   0.11760   0.00757   1.000
    O223    O    0.56129   0.18378   0.02364   1.000
    O224    O    0.51774   0.14691   0.97680   1.000
    O225    O    0.92197   0.61766   0.00789   1.000
    O226    O    0.93923   0.68374   0.02403   1.000
    O227    O    0.98218   0.64693   0.97689   1.000
    O228    O    0.90919   0.18234   0.02816   1.000
    O229    O    0.92909   0.24544   0.04275   1.000
    O230    O    0.96924   0.20817   0.99472   1.000
    O231    O    0.59048   0.68206   0.02816   1.000
    O232    O    0.57092   0.74530   0.04268   1.000
    O233    O    0.53017   0.70795   0.99492   1.000
    O234    O    0.53672   0.25752   0.03817   1.000
    O235    O    0.50907   0.32303   0.04828   1.000
    O236    O    0.46982   0.29208   0.00504   1.000
    O237    O    0.96626   0.75737   0.03861   1.000
    O238    O    0.00000   0.82277   0.04874   1.000
    O239    O    0.03288   0.79186   0.00526   1.000
    O240    O    0.61182   0.22300   0.06991   1.000
    O241    O    0.88924   0.72305   0.07059   1.000
    O242    O    0.54756   0.81672   0.05638   1.000
    O243    O    0.52566   0.88081   0.06623   1.000
    O244    O    0.95276   0.31674   0.05654   1.000
    O245    O    0.97490   0.38073   0.06644   1.000
    O246    O    0.62389   0.77678   0.11594   1.000
    O247    O    0.87645   0.27662   0.11609   1.000
    O248    O    0.68761   0.19390   0.09532   1.000
    O249    O    0.65856   0.25850   0.11555   1.000
    O250    O    0.81373   0.69406   0.09643   1.000
    O251    O    0.84279   0.75880   0.11627   1.000
    O252    O    0.74535   0.28225   0.15207   1.000
    O253    O    0.75554   0.78265   0.15231   1.000
    O254    O    0.65206   0.56140   0.17351   1.000
    O255    O    0.84895   0.06106   0.17353   1.000
    O256    O    0.66025   0.85303   0.17176   1.000
    O257    O    0.63166   0.70903   0.18990   1.000
    O258    O    0.62022   0.81031   0.21079   1.000
    O259    O    0.83917   0.35299   0.17187   1.000
    O260    O    0.86887   0.20872   0.18994   1.000
    O261    O    0.87904   0.31014   0.21093   1.000
    O262    O    0.61746   0.92786   0.19972   1.000
    O263    O    0.88092   0.42809   0.19986   1.000
    O264    O    0.58976   0.52687   0.19893   1.000
    O265    O    0.60489   0.60466   0.20046   1.000
    O266    O    0.91144   0.03180   0.19889   1.000
    O267    O    0.89595   0.10440   0.20046   1.000
    O268    O    0.92820   0.96246   0.19893   1.000
    O269    O    0.57330   0.45750   0.19899   1.000
    O270    O    0.58320   0.08890   0.20911   1.000
    O271    O    0.91561   0.58908   0.20946   1.000
    O272    O    0.98280   0.00002   0.22941   1.000
    O273    O    0.51856   0.49494   0.22952   1.000
    O274    O    0.95041   0.15017   0.23185   1.000
    O275    O    0.55024   0.65033   0.23188   1.000
    O276    O    0.55509   0.96116   0.23674   1.000
    O277    O    0.57742   0.88513   0.23875   1.000
    O278    O    0.94328   0.46121   0.23698   1.000
    O279    O    0.92078   0.38524   0.23892   1.000
    O280    O    0.52081   0.11979   0.23679   1.000
    O281    O    0.53737   0.04219   0.23761   1.000
    O282    O    0.97817   0.61971   0.23705   1.000
    O283    O    0.96128   0.54217   0.23792   1.000
    O284    O    0.50006   0.18864   0.23916   1.000
    O285    O    0.00396   0.68847   0.23935   1.000
    O286    O    0.07923   0.88523   0.26115   1.000
    O287    O    0.12095   0.81001   0.28909   1.000
    O288    O    0.42254   0.38515   0.26119   1.000
    O289    O    0.37974   0.31037   0.28918   1.000
    O290    O    0.44965   0.15041   0.26803   1.000
    O291    O    0.04957   0.65003   0.26817   1.000
    O292    O    0.48133   0.00002   0.27039   1.000
    O293    O    0.01719   0.49475   0.27062   1.000
    O294    O    0.03869   0.04220   0.26213   1.000
    O295    O    0.05671   0.96122   0.26308   1.000
    O296    O    0.46251   0.54217   0.26227   1.000
    O297    O    0.44482   0.46116   0.26317   1.000
    O298    O    0.00071   0.18853   0.26070   1.000
    O299    O    0.02179   0.11975   0.26300   1.000
    O300    O    0.49978   0.68860   0.26072   1.000
    O301    O    0.47905   0.61977   0.26310   1.000
    O302    O    0.08435   0.08904   0.29061   1.000
    O303    O    0.41667   0.58892   0.29076   1.000
    O304    O    0.11910   0.92804   0.30018   1.000
    O305    O    0.38250   0.42789   0.30022   1.000
    O306    O    0.39503   0.10479   0.29947   1.000
    O307    O    0.36829   0.20915   0.31008   1.000
    O308    O    0.10407   0.60418   0.29954   1.000
    O309    O    0.13113   0.70849   0.31003   1.000
    O310    O    0.42662   0.96261   0.30094   1.000
    O311    O    0.41016   0.03201   0.30100   1.000
    O312    O    0.07183   0.45712   0.30108   1.000
    O313    O    0.08859   0.52644   0.30112   1.000
    O314    O    0.34788   0.06156   0.32643   1.000
    O315    O    0.15110   0.56077   0.32646   1.000
    O316    O    0.16082   0.85282   0.32812   1.000
    O317    O    0.33970   0.35311   0.32821   1.000
    O318    O    0.25464   0.78207   0.34785   1.000
    O319    O    0.12355   0.77634   0.38388   1.000
    O320    O    0.24443   0.28274   0.34767   1.000
    O321    O    0.37599   0.27691   0.38410   1.000
    O322    O    0.15720   0.25889   0.38372   1.000
    O323    O    0.34149   0.75839   0.38433   1.000
    O324    O    0.18629   0.19415   0.40365   1.000
    O325    O    0.11074   0.22320   0.42942   1.000
    O326    O    0.31249   0.69380   0.40458   1.000
    O327    O    0.38829   0.72285   0.42997   1.000
    O328    O    0.02514   0.88048   0.43352   1.000
    O329    O    0.47408   0.38092   0.43373   1.000
    O330    O    0.00796   0.32303   0.45123   1.000
    O331    O    0.49095   0.82283   0.45149   1.000
    O332    O    0.04727   0.81645   0.44343   1.000
    O333    O    0.07094   0.74512   0.45722   1.000
    O334    O    0.45224   0.31685   0.44364   1.000
    O335    O    0.42896   0.24545   0.45741   1.000
    O336    O    0.98223   0.85285   0.47686   1.000
    O337    O    0.51752   0.35326   0.47683   1.000
    O338    O    0.03584   0.25760   0.46137   1.000
    O339    O    0.06072   0.18395   0.47598   1.000
    O340    O    0.46336   0.75734   0.46166   1.000
    O341    O    0.43888   0.68361   0.47626   1.000
    O342    O    0.09084   0.68198   0.47182   1.000
    O343    O    0.40947   0.18223   0.47199   1.000
    O344    O    0.96920   0.29215   0.49472   1.000
    O345    O    0.53023   0.79190   0.49476   1.000
    O346    O    0.03292   0.70787   0.50526   1.000
    O347    O    0.46974   0.20814   0.50521   1.000
    O348    O    0.07799   0.11786   0.49214   1.000
    O349    O    0.42202   0.61744   0.49237   1.000
    O350    O    0.01776   0.14717   0.52313   1.000
    O351    O    0.48248   0.64677   0.52312   1.000
    O352    O    0.57797   0.38258   0.50759   1.000
    O353    O    0.56111   0.31641   0.52370   1.000
    O354    O    0.92199   0.88217   0.50785   1.000
    O355    O    0.93926   0.81607   0.52400   1.000
    O356    O    0.59050   0.81780   0.52798   1.000
    O357    O    0.57102   0.75458   0.54256   1.000
    O358    O    0.90914   0.31804   0.52816   1.000
    O359    O    0.92904   0.25490   0.54276   1.000
    O360    O    0.53661   0.24269   0.53831   1.000
    O361    O    0.50900   0.17721   0.54850   1.000
    O362    O    0.96628   0.74242   0.53861   1.000
    O363    O    0.00000   0.67699   0.54875   1.000
    O364    O    0.61169   0.27718   0.56999   1.000
    O365    O    0.88924   0.77682   0.57056   1.000
    O366    O    0.54775   0.68317   0.55632   1.000
    O367    O    0.52593   0.61909   0.56621   1.000
    O368    O    0.95271   0.18357   0.55656   1.000
    O369    O    0.97485   0.11955   0.56647   1.000
    O370    O    0.62397   0.72312   0.61588   1.000
    O371    O    0.87643   0.22368   0.61610   1.000
    O372    O    0.68749   0.30623   0.59539   1.000
    O373    O    0.65848   0.24165   0.61564   1.000
    O374    O    0.81368   0.80587   0.59633   1.000
    O375    O    0.84278   0.74113   0.61626   1.000
    O376    O    0.74533   0.21795   0.65213   1.000
    O377    O    0.75555   0.71728   0.65230   1.000
    O378    O    0.65208   0.93846   0.67354   1.000
    O379    O    0.84888   0.43925   0.67351   1.000
    O380    O    0.66027   0.64691   0.67176   1.000
    O381    O    0.63169   0.79087   0.68989   1.000
    O382    O    0.62023   0.68965   0.71079   1.000
    O383    O    0.83915   0.14719   0.67186   1.000
    O384    O    0.86884   0.29153   0.68995   1.000
    O385    O    0.87902   0.19001   0.71089   1.000
    O386    O    0.61748   0.57213   0.69976   1.000
    O387    O    0.88087   0.07198   0.69980   1.000
    O388    O    0.91138   0.47358   0.69886   1.000
    O389    O    0.89590   0.39584   0.70044   1.000
    O390    O    0.58981   0.97305   0.69897   1.000
    O391    O    0.60494   0.89524   0.70050   1.000
    O392    O    0.92814   0.54291   0.69890   1.000
    O393    O    0.57335   0.04245   0.69904   1.000
    O394    O    0.58329   0.41110   0.70920   1.000
    O395    O    0.91564   0.91098   0.70937   1.000
    O396    O    0.98278   0.50527   0.72936   1.000
    O397    O    0.51864   0.00503   0.72958   1.000
    O398    O    0.95040   0.34999   0.73181   1.000
    O399    O    0.55032   0.84961   0.73193   1.000
    O400    O    0.55515   0.53886   0.73680   1.000
    O401    O    0.57744   0.61487   0.73879   1.000
    O402    O    0.94326   0.03880   0.73690   1.000
    O403    O    0.92075   0.11479   0.73883   1.000
    O404    O    0.52090   0.38026   0.73687   1.000
    O405    O    0.53745   0.45785   0.73770   1.000
    O406    O    0.97819   0.88027   0.73698   1.000
    O407    O    0.96129   0.95782   0.73785   1.000
    O408    O    0.50017   0.31143   0.73924   1.000
    O409    O    0.00398   0.81149   0.73928   1.000
    O410    O    0.07919   0.61478   0.76107   1.000
    O411    O    0.12094   0.68988   0.78905   1.000
    O412    O    0.42255   0.11489   0.76124   1.000
    O413    O    0.37975   0.18971   0.78919   1.000
    O414    O    0.44971   0.34970   0.76809   1.000
    O415    O    0.04956   0.84986   0.76812   1.000
    O416    O    0.48140   0.50508   0.77045   1.000
    O417    O    0.01717   0.00517   0.77057   1.000
    O418    O    0.03869   0.45785   0.76206   1.000
    O419    O    0.05669   0.53881   0.76301   1.000
    O420    O    0.46261   0.95783   0.76236   1.000
    O421    O    0.44488   0.03885   0.76324   1.000
    O422    O    0.00074   0.31155   0.76062   1.000
    O423    O    0.02180   0.38031   0.76293   1.000
    O424    O    0.49990   0.81138   0.76080   1.000
    O425    O    0.47915   0.88023   0.76318   1.000
    O426    O    0.08436   0.41094   0.79052   1.000
    O427    O    0.41678   0.91112   0.79086   1.000
    O428    O    0.11905   0.57193   0.80013   1.000
    O429    O    0.38252   0.07215   0.80027   1.000
    O430    O    0.39507   0.39536   0.79951   1.000
    O431    O    0.36831   0.29099   0.81007   1.000
    O432    O    0.10403   0.89562   0.79951   1.000
    O433    O    0.13111   0.79130   0.81003   1.000
    O434    O    0.42667   0.54253   0.80099   1.000
    O435    O    0.41021   0.47315   0.80104   1.000
    O436    O    0.07178   0.04273   0.80105   1.000
    O437    O    0.08854   0.97338   0.80109   1.000
    O438    O    0.34791   0.43862   0.82645   1.000
    O439    O    0.15102   0.93896   0.82645   1.000
    O440    O    0.16080   0.64702   0.82811   1.000
    O441    O    0.33972   0.14698   0.82822   1.000
    O442    O    0.25463   0.71777   0.84791   1.000
    O443    O    0.12353   0.72340   0.88389   1.000
    O444    O    0.24443   0.21737   0.84767   1.000
    O445    O    0.37608   0.22325   0.88403   1.000
    O446    O    0.15719   0.24122   0.88371   1.000
    O447    O    0.34142   0.74152   0.88442   1.000
    O448    O    0.18625   0.30596   0.90354   1.000
    O449    O    0.11073   0.27698   0.92939   1.000
    O450    O    0.31237   0.80612   0.90464   1.000
    O451    O    0.38816   0.77702   0.93006   1.000
    O452    O    0.02508   0.61930   0.93354   1.000
    O453    O    0.47432   0.11922   0.93374   1.000
    O454    O    0.00799   0.17727   0.95123   1.000
    O455    O    0.49092   0.67700   0.95168   1.000
    O456    O    0.04722   0.68329   0.94344   1.000
    O457    O    0.07088   0.75459   0.95722   1.000
    O458    O    0.45242   0.18331   0.94358   1.000
    O459    O    0.42907   0.25473   0.95729   1.000
    O460    O    0.03586   0.24266   0.96136   1.000
    O461    O    0.46326   0.74251   0.96179   1.000
    O462    O    0.09077   0.81770   0.97181   1.000
    O463    O    0.40951   0.31797   0.97181   1.000
loop_
    _geom_bond_atom_site_label_1
    _geom_bond_atom_site_label_2
    _geom_bond_distance
    _geom_bond_site_symmetry_2
    _ccdc_geom_bond_type
    C115   O216      0.67084      .   S
    C114   O216      0.67084  1_655   S
    C115   O217      0.71847  1_554   S
    C116   O217      0.71847      .   S
    C115   O218      0.55054  1_554   S
    C37    O218      0.55054      .   S
    C127   O219      0.67284      .   S
    C126   O219      0.67284      .   S
    C127   O220      0.71686  1_554   S
    C128   O220      0.71686      .   S
    C127   O221      0.55006  1_554   S
    C45    O221      0.55006      .   S
    C79    O222      0.54451      .   S
    C13    O222      0.54451      .   S
    C79    O223      0.69938      .   S
    C80    O223      0.69938      .   S
    C79    O224      0.69454  1_554   S
    C78    O224      0.69454      .   S
    C163   O225      0.54443      .   S
    C69    O225      0.54443      .   S
    C163   O226      0.69944      .   S
    C164   O226      0.69944      .   S
    C163   O227      0.69445  1_554   S
    C162   O227      0.69445  1_455   S
    C118   O228      0.54503      .   S
    C39    O228      0.54503      .   S
    C118   O229      0.67516      .   S
    C175   O229      0.67516      .   S
    C118   O230      0.69566  1_554   S
    C117   O230      0.69566  1_455   S
    C130   O231      0.54509      .   S
    C47    O231      0.54509      .   S
    C130   O232      0.67517      .   S
    C177   O232      0.67517      .   S
    C130   O233      0.69586  1_554   S
    C129   O233      0.69586      .   S
    C81    O234      0.69919      .   S
    C80    O234      0.69919      .   S
    C81    O235      0.54432      .   S
    C14    O235      0.54432      .   S
    C81    O236      0.69585      .   S
    C82    O236      0.69585  1_556   S
    C165   O237      0.71599  1_455   S
    C164   O237      0.71599      .   S
    C165   O238      0.54218      .   S
    C70    O238      0.54218      .   S
    C165   O239      0.67745      .   S
    C166   O239      0.67745  1_556   S
    C80    O240      0.75338      .   S
    C83    O240      0.75338      .   S
    C164   O241      0.75333      .   S
    C167   O241      0.75333      .   S
    C126   O242      0.67548      .   S
    C177   O242      0.67548      .   S
    C126   O243      0.54500      .   S
    C44    O243      0.54500      .   S
    C114   O244      0.67541      .   S
    C175   O244      0.67541      .   S
    C114   O245      0.54503      .   S
    C36    O245      0.54503      .   S
    C177   O246      1.18613      .   S
    C4     O246      1.18613      .   S
    C175   O247      1.18522      .   S
    C3     O247      1.18522      .   S
    C187   O248      0.63161      .   S
    C83    O248      0.63161      .   S
    C83    O249      0.64159      .   S
    C186   O249      0.64159      .   S
    C215   O250      0.63172      .   S
    C167   O250      0.63172      .   S
    C167   O251      0.64139      .   S
    C214   O251      0.64139      .   S
    C186   O252      1.14797      .   S
    C3     O252      1.14797      .   S
    C214   O253      1.15258      .   S
    C4     O253      1.15258      .   S
    C43    O254      0.54488      .   S
    C124   O254      0.54488      .   S
    C35    O255      0.54493      .   S
    C112   O255      0.54493      .   S
    C4     O256      1.23621      .   S
    C209   O256      1.23621      .   S
    C4     O257      1.17363      .   S
    C176   O257      1.17363      .   S
    C4     O258      1.19594      .   S
    C208   O258      1.19594      .   S
    C3     O259      1.24012      .   S
    C189   O259      1.24012      .   S
    C3     O260      1.17264      .   S
    C174   O260      1.17264      .   S
    C3     O261      1.19030      .   S
    C188   O261      1.19030      .   S
    C209   O262      0.63493      .   S
    C149   O262      0.63493      .   S
    C189   O263      0.63459      .   S
    C89    O263      0.63459      .   S
    C124   O264      0.69661      .   S
    C123   O264      0.69661      .   S
    C124   O265      0.67645      .   S
    C176   O265      0.67645      .   S
    C112   O266      0.63470      .   S
    C111   O266      0.63470      .   S
    C112   O267      0.67641      .   S
    C174   O267      0.67641      .   S
    C34    O268      0.61743      .   S
    C111   O268      0.61743  1_545   S
    C42    O269      0.54523      .   S
    C123   O269      0.54523      .   S
    C57    O270      0.54441      .   S
    C145   O270      0.54441      .   S
    C17    O271      0.54439      .   S
    C85    O271      0.54439      .   S
    C111   O272      0.69539      .   S
    C110   O272      0.69539  1_455   S
    C123   O273      0.70002      .   S
    C122   O273      0.70002      .   S
    C174   O274      0.67688      .   S
    C108   O274      0.67688      .   S
    C176   O275      0.67690      .   S
    C120   O275      0.67690      .   S
    C149   O276      0.75353      .   S
    C146   O276      0.75353  1_545   S
    C149   O277      0.63804      .   S
    C208   O277      0.63804      .   S
    C89    O278      0.75366      .   S
    C86    O278      0.75366      .   S
    C89    O279      0.63853      .   S
    C188   O279      0.63853      .   S
    C145   O280      0.69456      .   S
    C144   O280      0.69456      .   S
    C145   O281      0.69934      .   S
    C146   O281      0.69934      .   S
    C85    O282      0.69448      .   S
    C84    O282      0.69448  1_455   S
    C85    O283      0.69935      .   S
    C86    O283      0.69935      .   S
    C56    O284      0.54472      .   S
    C144   O284      0.54472      .   S
    C16    O285      0.53534      .   S
    C84    O285      0.53534      .   S
    C196   O286      0.63859      .   S
    C113   O286      0.63859      .   S
    C196   O287      1.18974      .   S
    C1     O287      1.18974      .   S
    C200   O288      0.63800      .   S
    C125   O288      0.63800      .   S
    C200   O289      1.19627      .   S
    C6     O289      1.19627      .   S
    C144   O290      0.67690      .   S
    C180   O290      0.67690      .   S
    C84    O291      0.67690      .   S
    C170   O291      0.67690      .   S
    C146   O292      0.69572      .   S
    C147   O292      0.69572      .   S
    C86    O293      0.69993  1_655   S
    C87    O293      0.69993      .   S
    C110   O294      0.69935      .   S
    C109   O294      0.69935      .   S
    C110   O295      0.75372  1_545   S
    C113   O295      0.75372      .   S
    C122   O296      0.69935      .   S
    C121   O296      0.69935      .   S
    C122   O297      0.75347      .   S
    C125   O297      0.75347      .   S
    C108   O298      0.54478  1_655   S
    C32    O298      0.54478      .   S
    C108   O299      0.69449  1_655   S
    C109   O299      0.69449      .   S
    C120   O300      0.54473      .   S
    C40    O300      0.54473      .   S
    C120   O301      0.69456      .   S
    C121   O301      0.69456      .   S
    C109   O302      0.54438      .   S
    C33    O302      0.54438      .   S
    C121   O303      0.54440      .   S
    C41    O303      0.54440      .   S
    C113   O304      0.63452      .   S
    C197   O304      0.63452      .   S
    C125   O305      0.63498      .   S
    C201   O305      0.63498      .   S
    C180   O306      0.67643      .   S
    C148   O306      0.67643      .   S
    C180   O307      1.17330      .   S
    C6     O307      1.17330      .   S
    C170   O308      0.67643      .   S
    C88    O308      0.67643      .   S
    C170   O309      1.17287      .   S
    C1     O309      1.17287      .   S
    C147   O310      0.61556  1_545   S
    C58    O310      0.61556      .   S
    C147   O311      0.63598      .   S
    C148   O311      0.63598      .   S
    C87    O312      0.54524      .   S
    C18    O312      0.54524      .   S
    C87    O313      0.69665      .   S
    C88    O313      0.69665      .   S
    C148   O314      0.54488      .   S
    C59    O314      0.54488      .   S
    C88    O315      0.54495      .   S
    C19    O315      0.54495      .   S
    C197   O316      1.24107      .   S
    C1     O316      1.24107      .   S
    C201   O317      1.23582      .   S
    C6     O317      1.23582      .   S
    C1     O318      1.14824      .   S
    C194   O318      1.14824      .   S
    C1     O319      1.18516      .   S
    C171   O319      1.18516      .   S
    C6     O320      1.15219      .   S
    C206   O320      1.15219      .   S
    C6     O321      1.18615      .   S
    C181   O321      1.18615      .   S
    C206   O322      0.64142      .   S
    C143   O322      0.64142      .   S
    C194   O323      0.64157      .   S
    C107   O323      0.64157      .   S
    C143   O324      0.63170      .   S
    C207   O324      0.63170      .   S
    C143   O325      0.75331      .   S
    C140   O325      0.75331      .   S
    C107   O326      0.63166      .   S
    C195   O326      0.63166      .   S
    C107   O327      0.75339      .   S
    C104   O327      0.75339      .   S
    C20    O328      0.54503      .   S
    C90    O328      0.54503      .   S
    C60    O329      0.54501      .   S
    C150   O329      0.54501      .   S
    C54    O330      0.54431      .   S
    C141   O330      0.54431      .   S
    C30    O331      0.54433      .   S
    C105   O331      0.54433      .   S
    C171   O332      0.67541      .   S
    C90    O332      0.67541      .   S
    C171   O333      0.67516      .   S
    C94    O333      0.67516      .   S
    C181   O334      0.67548      .   S
    C150   O334      0.67548      .   S
    C181   O335      0.67517      .   S
    C154   O335      0.67517      .   S
    C90    O336      0.69442  1_455   S
    C91    O336      0.69442      .   S
    C150   O337      0.69454      .   S
    C151   O337      0.69454      .   S
    C140   O338      0.69901      .   S
    C141   O338      0.69901      .   S
    C140   O339      0.69942      .   S
    C139   O339      0.69942      .   S
    C104   O340      0.69917      .   S
    C105   O340      0.69917      .   S
    C104   O341      0.69940      .   S
    C103   O341      0.69940      .   S
    C23    O342      0.54504      .   S
    C94    O342      0.54504      .   S
    C63    O343      0.54509      .   S
    C154   O343      0.54509      .   S
    C141   O344      0.69579  1_455   S
    C142   O344      0.69579      .   S
    C105   O345      0.69589      .   S
    C106   O345      0.69589      .   S
    C94    O346      0.67770      .   S
    C93    O346      0.67770      .   S
    C154   O347      0.69588      .   S
    C153   O347      0.69588      .   S
    C53    O348      0.54454      .   S
    C139   O348      0.54454      .   S
    C29    O349      0.54452      .   S
    C103   O349      0.54452      .   S
    C139   O350      0.69442      .   S
    C138   O350      0.69442  1_655   S
    C103   O351      0.69455      .   S
    C102   O351      0.69455      .   S
    C151   O352      0.54452      .   S
    C61    O352      0.54452      .   S
    C151   O353      0.69939      .   S
    C152   O353      0.69939      .   S
    C91    O354      0.54453      .   S
    C21    O354      0.54453      .   S
    C91    O355      0.69943      .   S
    C92    O355      0.69943      .   S
    C106   O356      0.54508      .   S
    C31    O356      0.54508      .   S
    C106   O357      0.67518      .   S
    C173   O357      0.67518      .   S
    C142   O358      0.54504      .   S
    C55    O358      0.54504      .   S
    C142   O359      0.67516      .   S
    C179   O359      0.67516      .   S
    C153   O360      0.69917      .   S
    C152   O360      0.69917      .   S
    C153   O361      0.54434      .   S
    C62    O361      0.54434      .   S
    C93    O362      0.71586  1_455   S
    C92    O362      0.71586      .   S
    C93    O363      0.54213      .   S
    C22    O363      0.54213      .   S
    C152   O364      0.75339      .   S
    C155   O364      0.75339      .   S
    C92    O365      0.75331      .   S
    C95    O365      0.75331      .   S
    C102   O366      0.67547      .   S
    C173   O366      0.67547      .   S
    C102   O367      0.54501      .   S
    C28    O367      0.54501      .   S
    C138   O368      0.67541      .   S
    C179   O368      0.67541      .   S
    C138   O369      0.54502      .   S
    C52    O369      0.54502      .   S
    C173   O370      1.18612      .   S
    C2     O370      1.18612      .   S
    C179   O371      1.18516      .   S
    C5     O371      1.18516      .   S
    C211   O372      0.63165      .   S
    C155   O372      0.63165      .   S
    C155   O373      0.64156      .   S
    C210   O373      0.64156      .   S
    C191   O374      0.63170      .   S
    C95    O374      0.63170      .   S
    C95    O375      0.64143      .   S
    C190   O375      0.64143      .   S
    C210   O376      1.14823      .   S
    C5     O376      1.14823      .   S
    C190   O377      1.15220      .   S
    C2     O377      1.15220      .   S
    C27    O378      0.54487      .   S
    C100   O378      0.54487      .   S
    C51    O379      0.54495      .   S
    C136   O379      0.54495      .   S
    C2     O380      1.23584      .   S
    C185   O380      1.23584      .   S
    C2     O381      1.17332      .   S
    C172   O381      1.17332      .   S
    C2     O382      1.19630      .   S
    C184   O382      1.19630      .   S
    C5     O383      1.24109      .   S
    C213   O383      1.24109      .   S
    C5     O384      1.17289      .   S
    C178   O384      1.17289      .   S
    C5     O385      1.18976      .   S
    C212   O385      1.18976      .   S
    C185   O386      0.63498      .   S
    C77    O386      0.63498      .   S
    C213   O387      0.63451      .   S
    C161   O387      0.63451      .   S
    C136   O388      0.69665      .   S
    C135   O388      0.69665      .   S
    C136   O389      0.67643      .   S
    C178   O389      0.67643      .   S
    C100   O390      0.69662      .   S
    C99    O390      0.69662  1_545   S
    C100   O391      0.67643      .   S
    C172   O391      0.67643      .   S
    C50    O392      0.54524      .   S
    C135   O392      0.54524      .   S
    C26    O393      0.54523      .   S
    C99    O393      0.54523      .   S
    C9     O394      0.54440      .   S
    C73    O394      0.54440      .   S
    C65    O395      0.54439      .   S
    C157   O395      0.54439      .   S
    C135   O396      0.69993      .   S
    C134   O396      0.69993  1_455   S
    C99    O397      0.70001      .   S
    C98    O397      0.70001  1_565   S
    C178   O398      0.67690      .   S
    C132   O398      0.67690      .   S
    C172   O399      0.67690      .   S
    C96    O399      0.67690      .   S
    C77    O400      0.75346      .   S
    C74    O400      0.75346      .   S
    C77    O401      0.63800      .   S
    C184   O401      0.63800      .   S
    C161   O402      0.75372      .   S
    C158   O402      0.75372  1_565   S
    C161   O403      0.63859      .   S
    C212   O403      0.63859      .   S
    C73    O404      0.69456      .   S
    C72    O404      0.69456      .   S
    C73    O405      0.69935      .   S
    C74    O405      0.69935      .   S
    C157   O406      0.69449      .   S
    C156   O406      0.69449  1_455   S
    C157   O407      0.69934      .   S
    C158   O407      0.69934      .   S
    C8     O408      0.54473      .   S
    C72    O408      0.54473      .   S
    C64    O409      0.53530      .   S
    C156   O409      0.53530      .   S
    C204   O410      0.63854      .   S
    C137   O410      0.63854      .   S
    C204   O411      1.19028      .   S
    C7     O411      1.19028      .   S
    C192   O412      0.63804      .   S
    C101   O412      0.63804      .   S
    C192   O413      1.19591      .   S
    C0     O413      1.19591      .   S
    C72    O414      0.67690      .   S
    C168   O414      0.67690      .   S
    C156   O415      0.67688      .   S
    C182   O415      0.67688      .   S
    C74    O416      0.70002      .   S
    C75    O416      0.70002      .   S
    C158   O417      0.69991  1_665   S
    C159   O417      0.69991      .   S
    C134   O418      0.69935      .   S
    C133   O418      0.69935      .   S
    C134   O419      0.75365      .   S
    C137   O419      0.75365      .   S
    C98    O420      0.69935      .   S
    C97    O420      0.69935      .   S
    C98    O421      0.75353  1_565   S
    C101   O421      0.75353      .   S
    C132   O422      0.54479  1_655   S
    C48    O422      0.54479      .   S
    C132   O423      0.69448  1_655   S
    C133   O423      0.69448      .   S
    C96    O424      0.54472      .   S
    C24    O424      0.54472      .   S
    C96    O425      0.69456      .   S
    C97    O425      0.69456      .   S
    C133   O426      0.54438      .   S
    C49    O426      0.54438      .   S
    C97    O427      0.54441      .   S
    C25    O427      0.54441      .   S
    C137   O428      0.63459      .   S
    C205   O428      0.63459      .   S
    C101   O429      0.63493      .   S
    C193   O429      0.63493      .   S
    C168   O430      0.67645      .   S
    C76    O430      0.67645      .   S
    C168   O431      1.17363      .   S
    C0     O431      1.17363      .   S
    C182   O432      0.67641      .   S
    C160   O432      0.67641      .   S
    C182   O433      1.17266      .   S
    C7     O433      1.17266      .   S
    C75    O434      0.54523      .   S
    C10    O434      0.54523      .   S
    C75    O435      0.69661      .   S
    C76    O435      0.69661      .   S
    C159   O436      0.54523      .   S
    C66    O436      0.54523      .   S
    C159   O437      0.69665  1_545   S
    C160   O437      0.69665      .   S
    C76    O438      0.54488      .   S
    C11    O438      0.54488      .   S
    C160   O439      0.54494      .   S
    C67    O439      0.54494      .   S
    C205   O440      1.24018      .   S
    C7     O440      1.24018      .   S
    C193   O441      1.23629      .   S
    C0     O441      1.23629      .   S
    C7     O442      1.14798      .   S
    C202   O442      1.14798      .   S
    C7     O443      1.18523      .   S
    C183   O443      1.18523      .   S
    C0     O444      1.15260      .   S
    C198   O444      1.15260      .   S
    C0     O445      1.18610      .   S
    C169   O445      1.18610      .   S
    C198   O446      0.64140      .   S
    C119   O446      0.64140      .   S
    C202   O447      0.64158      .   S
    C131   O447      0.64158      .   S
    C119   O448      0.63172      .   S
    C199   O448      0.63172      .   S
    C119   O449      0.75333      .   S
    C116   O449      0.75333      .   S
    C131   O450      0.63161      .   S
    C203   O450      0.63161      .   S
    C131   O451      0.75338      .   S
    C128   O451      0.75338      .   S
    C68    O452      0.54504      .   S
    C162   O452      0.54504      .   S
    C12    O453      0.54500      .   S
    C78    O453      0.54500      .   S
    C38    O454      0.54431      .   S
    C117   O454      0.54431      .   S
    C46    O455      0.54432      .   S
    C129   O455      0.54432      .   S
    C183   O456      0.67540      .   S
    C162   O456      0.67540      .   S
    C183   O457      0.67516      .   S
    C166   O457      0.67516      .   S
    C169   O458      0.67548      .   S
    C78    O458      0.67548      .   S
    C169   O459      0.67517      .   S
    C82    O459      0.67517      .   S
    C116   O460      0.69897      .   S
    C117   O460      0.69897      .   S
    C128   O461      0.69919      .   S
    C129   O461      0.69919      .   S
    C71    O462      0.54503      .   S
    C166   O462      0.54503      .   S
    C15    O463      0.54510      .   S
    C82    O463      0.54510      .   S
