# CIF file generated by openbabel 2.4.90, see http://openbabel.sf.net
data_I
_chemical_name_common ''
_cell_length_a 13.07
_cell_length_b 15.248
_cell_length_c 19.142
_cell_angle_alpha 89.984
_cell_angle_beta 89.996
_cell_angle_gamma 89.964
_space_group_name_H-M_alt 'P 1'
_space_group_name_Hall 'P 1'
loop_
    _symmetry_equiv_pos_as_xyz
    x,y,z
loop_
    _atom_site_label
    _atom_site_type_symbol
    _atom_site_fract_x
    _atom_site_fract_y
    _atom_site_fract_z
    _atom_site_occupancy
    Zr0     Zr   0.32851   0.22740   0.83137   1.000
    Zr1     Zr   0.17105   0.77199   0.33125   1.000
    Zr2     Zr   0.67147   0.72728   0.66857   1.000
    Zr3     Zr   0.82893   0.27224   0.16871   1.000
    Zr4     Zr   0.67146   0.77262   0.16861   1.000
    Zr5     Zr   0.82892   0.22803   0.66873   1.000
    Zr6     Zr   0.32850   0.27274   0.33140   1.000
    Zr7     Zr   0.17105   0.72778   0.83127   1.000
    N8      N    0.99754   0.03473   0.24283   1.000
    O9      O    0.93321   0.12173   0.21639   1.000
    O10     O    0.05925   0.92237   0.26596   1.000
    O11     O    0.07918   0.94378   0.28548   1.000
    N12     N    0.00316   0.96608   0.75715   1.000
    O13     O    0.06713   0.87869   0.78359   1.000
    O14     O    0.94109   0.07804   0.73402   1.000
    O15     O    0.92115   0.05664   0.71450   1.000
    N16     N    0.96550   0.77858   0.51798   1.000
    O17     O    0.04453   0.77746   0.45093   1.000
    O18     O    0.86053   0.74793   0.58514   1.000
    N19     N    0.46387   0.72109   0.48220   1.000
    O20     O    0.54392   0.72210   0.54904   1.000
    O21     O    0.35926   0.75158   0.41502   1.000
    N22     N    0.50361   0.53401   0.24288   1.000
    O23     O    0.42166   0.44356   0.28555   1.000
    O24     O    0.44168   0.42219   0.26603   1.000
    O25     O    0.56764   0.62152   0.21639   1.000
    N26     N    0.03573   0.27881   0.98224   1.000
    O27     O    0.95609   0.27772   0.04916   1.000
    O28     O    0.14008   0.24809   0.91495   1.000
    N29     N    0.96548   0.72122   0.01800   1.000
    O30     O    0.04450   0.72231   0.95095   1.000
    O31     O    0.86051   0.75193   0.08516   1.000
    N32     N    0.46374   0.77879   0.98254   1.000
    O33     O    0.35918   0.74828   0.91522   1.000
    O34     O    0.54382   0.77778   0.04924   1.000
    N35     N    0.03571   0.22144   0.48200   1.000
    O36     O    0.14007   0.25209   0.41484   1.000
    O37     O    0.95607   0.22256   0.54905   1.000
    N38     N    0.00318   0.53385   0.25720   1.000
    O39     O    0.06715   0.62117   0.28362   1.000
    O40     O    0.92118   0.44342   0.21454   1.000
    O41     O    0.94111   0.42200   0.23407   1.000
    N42     N    0.50368   0.96597   0.74294   1.000
    O43     O    0.56768   0.87842   0.71642   1.000
    O44     O    0.44171   0.07784   0.76607   1.000
    O45     O    0.42170   0.05648   0.78558   1.000
    N46     N    0.53611   0.27894   0.51776   1.000
    O47     O    0.64072   0.24845   0.58495   1.000
    O48     O    0.45605   0.27792   0.45093   1.000
    N49     N    0.53625   0.22124   0.01767   1.000
    O50     O    0.45617   0.22224   0.95085   1.000
    O51     O    0.64080   0.25174   0.08487   1.000
    N52     N    0.99752   0.46617   0.74278   1.000
    O53     O    0.07916   0.55660   0.78544   1.000
    O54     O    0.93318   0.37885   0.71636   1.000
    O55     O    0.05923   0.57802   0.76592   1.000
    N56     N    0.49629   0.03483   0.25703   1.000
    O57     O    0.55826   0.92257   0.23391   1.000
    O58     O    0.43229   0.12199   0.28356   1.000
    O59     O    0.57827   0.94393   0.21440   1.000
    N60     N    0.49635   0.46602   0.75709   1.000
    O61     O    0.43233   0.37851   0.78358   1.000
    O62     O    0.57831   0.55646   0.71442   1.000
    O63     O    0.55829   0.57783   0.73394   1.000
loop_
    _geom_bond_atom_site_label_1
    _geom_bond_atom_site_label_2
    _geom_bond_distance
    _geom_bond_site_symmetry_2
    _ccdc_geom_bond_type
    N8     O9        1.64960      .   S
    Zr3    O9        2.82010      .   S
    N8     O10       1.94410  1_645   S
    Zr1    O10       2.99157      .   S
    N8     O11       1.93029  1_645   S
    Zr1    O11       3.01088      .   S
    N12    O13       1.65206      .   S
    Zr7    O13       2.82276      .   S
    N12    O14       1.94073  1_465   S
    Zr5    O14       2.98925      .   S
    N12    O15       1.92856  1_465   S
    Zr5    O15       3.00750      .   S
    N16    O17       1.64748  1_655   S
    Zr1    O17       2.82651      .   S
    N16    O18       1.93754      .   S
    Zr2    O18       2.95895      .   S
    N19    O20       1.65288      .   S
    Zr2    O20       2.83217      .   S
    N19    O21       1.93350      .   S
    Zr1    O21       2.95273      .   S
    N22    O23       1.92809      .   S
    Zr6    O23       3.00662      .   S
    N22    O24       1.93904      .   S
    Zr6    O24       2.99154      .   S
    N22    O25       1.65495      .   S
    Zr4    O25       2.82654      .   S
    N26    O27       1.65063  1_456   S
    Zr3    O27       2.82932      .   S
    N26    O28       1.93332      .   S
    Zr0    O28       2.95359      .   S
    N29    O30       1.64751  1_654   S
    Zr7    O30       2.82663      .   S
    N29    O31       1.93736      .   S
    Zr4    O31       2.95895      .   S
    N32    O33       1.93536      .   S
    Zr7    O33       2.95437      .   S
    N32    O34       1.65109  1_556   S
    Zr4    O34       2.83036      .   S
    N35    O36       1.93186      .   S
    Zr6    O36       2.95226      .   S
    N35    O37       1.65253  1_455   S
    Zr5    O37       2.83123      .   S
    N38    O39       1.65209      .   S
    Zr1    O39       2.82299      .   S
    N38    O40       1.92864  1_455   S
    Zr3    O40       3.00692      .   S
    N38    O41       1.94050  1_455   S
    Zr3    O41       2.98917      .   S
    N42    O43       1.65485      .   S
    Zr2    O43       2.82613      .   S
    N42    O44       1.93916  1_565   S
    Zr0    O44       2.99152      .   S
    N42    O45       1.92806  1_565   S
    Zr0    O45       3.00687      .   S
    N46    O47       1.93352      .   S
    Zr5    O47       2.95278      .   S
    N46    O48       1.65289      .   S
    Zr6    O48       2.83218      .   S
    N49    O50       1.65289  1_554   S
    Zr0    O50       2.83221      .   S
    N49    O51       1.93382      .   S
    Zr3    O51       2.95312      .   S
    N52    O53       1.92600  1_655   S
    Zr7    O53       3.00505      .   S
    N52    O54       1.65451      .   S
    Zr5    O54       2.82529      .   S
    N52    O55       1.93852  1_655   S
    Zr7    O55       2.98685      .   S
    N56    O57       1.94434  1_545   S
    Zr4    O57       2.99599      .   S
    N56    O58       1.65009      .   S
    Zr6    O58       2.82130      .   S
    N56    O59       1.93228  1_545   S
    Zr4    O59       3.01192      .   S
    N60    O61       1.65495      .   S
    Zr0    O61       2.82653      .   S
    N60    O62       1.92809      .   S
    Zr2    O62       3.00663      .   S
    N60    O63       1.93903      .   S
    Zr2    O63       2.99156      .   S
