# CIF file generated by openbabel 2.4.90, see http://openbabel.sf.net
data_I
_chemical_name_common ''
_cell_length_a 22.684
_cell_length_b 12.99
_cell_length_c 12.986
_cell_angle_alpha 117.495
_cell_angle_beta 94.955
_cell_angle_gamma 85.039
_space_group_name_H-M_alt 'P 1'
_space_group_name_Hall 'P 1'
loop_
    _symmetry_equiv_pos_as_xyz
    x,y,z
loop_
    _atom_site_label
    _atom_site_type_symbol
    _atom_site_fract_x
    _atom_site_fract_y
    _atom_site_fract_z
    _atom_site_occupancy
    H0      H    0.09459   0.81852   0.96890   1.000
    H1      H    0.59459   0.81853   0.96898   1.000
    H2      H    0.42278   0.70581   0.80630   1.000
    H3      H    0.92278   0.70581   0.80630   1.000
    H4      H    0.41709   0.86460   0.74430   1.000
    H5      H    0.91709   0.86460   0.74430   1.000
    H6      H    0.15541   0.96906   0.81873   1.000
    H7      H    0.65541   0.96907   0.81873   1.000
    H8      H    0.32720   0.80633   0.70582   1.000
    H9      H    0.82720   0.80633   0.70582   1.000
    H10     H    0.33289   0.74422   0.86457   1.000
    H11     H    0.83289   0.74422   0.86457   1.000
    H12     H    0.40541   0.18147   0.03100   1.000
    H13     H    0.90541   0.18147   0.03104   1.000
    H14     H    0.07722   0.29418   0.19370   1.000
    H15     H    0.57722   0.29418   0.19370   1.000
    H16     H    0.08292   0.13538   0.25500   1.000
    H17     H    0.58292   0.13539   0.25570   1.000
    H18     H    0.34459   0.03093   0.18127   1.000
    H19     H    0.84459   0.03093   0.18128   1.000
    H20     H    0.17280   0.19368   0.29419   1.000
    H21     H    0.67281   0.19367   0.29419   1.000
    H22     H    0.16712   0.25578   0.13544   1.000
    H23     H    0.66712   0.25578   0.13544   1.000
    C24     C    0.00311   0.92283   0.82780   1.000
    C25     C    0.50311   0.92283   0.82780   1.000
    C26     C    0.05434   0.82618   0.92008   1.000
    C27     C    0.55434   0.82618   0.92008   1.000
    C28     C    0.00847   0.75067   0.89351   1.000
    C29     C    0.50848   0.75066   0.89350   1.000
    C30     C    0.45855   0.76440   0.82860   1.000
    C31     C    0.95855   0.76440   0.82864   1.000
    C32     C    0.45538   0.85112   0.79396   1.000
    C33     C    0.95538   0.85111   0.79396   1.000
    C34     C    0.24687   0.82777   0.92291   1.000
    C35     C    0.74687   0.82777   0.92291   1.000
    C36     C    0.19566   0.92014   0.82633   1.000
    C37     C    0.69566   0.92014   0.82633   1.000
    C38     C    0.24152   0.89356   0.75077   1.000
    C39     C    0.74152   0.89356   0.75077   1.000
    C40     C    0.29143   0.82865   0.76444   1.000
    C41     C    0.79144   0.82865   0.76444   1.000
    C42     C    0.29461   0.79395   0.85116   1.000
    C43     C    0.79461   0.79395   0.85116   1.000
    C44     C    0.49689   0.07717   0.17221   1.000
    C45     C    0.99689   0.07716   0.17221   1.000
    C46     C    0.44566   0.17382   0.07993   1.000
    C47     C    0.94567   0.17382   0.07993   1.000
    C48     C    0.49153   0.24933   0.10650   1.000
    C49     C    0.99153   0.24933   0.10650   1.000
    C50     C    0.04145   0.23559   0.17136   1.000
    C51     C    0.54146   0.23559   0.17137   1.000
    C52     C    0.04463   0.14888   0.20604   1.000
    C53     C    0.54463   0.14888   0.20604   1.000
    C54     C    0.25313   0.17223   0.07710   1.000
    C55     C    0.75313   0.17223   0.07710   1.000
    C56     C    0.30434   0.07986   0.17368   1.000
    C57     C    0.80435   0.07986   0.17368   1.000
    C58     C    0.25848   0.10643   0.24924   1.000
    C59     C    0.75849   0.10643   0.24924   1.000
    C60     C    0.20857   0.17136   0.23557   1.000
    C61     C    0.70857   0.17136   0.23557   1.000
    C62     C    0.20539   0.20605   0.14885   1.000
    C63     C    0.70539   0.20605   0.14885   1.000
    S64     S    0.00741   0.04213   0.79536   1.000
    S65     S    0.50742   0.04213   0.79536   1.000
    S66     S    0.43194   0.03800   0.69629   1.000
    S67     S    0.93194   0.03800   0.69629   1.000
    S68     S    0.24257   0.79524   0.04210   1.000
    S69     S    0.74257   0.79524   0.04210   1.000
    S70     S    0.31805   0.69617   0.03796   1.000
    S71     S    0.81805   0.69617   0.03796   1.000
    S72     S    0.49259   0.95787   0.20460   1.000
    S73     S    0.99259   0.95787   0.20460   1.000
    S74     S    0.06806   0.96199   0.30372   1.000
    S75     S    0.56806   0.96199   0.30372   1.000
    S76     S    0.25744   0.20476   0.95786   1.000
    S77     S    0.75744   0.20476   0.95786   1.000
    S78     S    0.18196   0.30382   0.96205   1.000
    S79     S    0.68196   0.30382   0.96205   1.000
    N80     N    0.05175   0.91157   0.88847   1.000
    N81     N    0.55175   0.91157   0.88847   1.000
    N82     N    0.19824   0.88847   0.91170   1.000
    N83     N    0.69825   0.88847   0.91170   1.000
    N84     N    0.44825   0.08843   0.11150   1.000
    N85     N    0.94826   0.08843   0.11150   1.000
    N86     N    0.30176   0.11152   0.08831   1.000
    N87     N    0.80176   0.11153   0.08831   1.000
loop_
    _geom_bond_atom_site_label_1
    _geom_bond_atom_site_label_2
    _geom_bond_distance
    _geom_bond_site_symmetry_2
    _ccdc_geom_bond_type
    H12    C46       1.09076      .   S
    H13    C47       1.09048      .   S
    S70    S68       2.03994      .   S
    S71    S69       2.03996      .   S
    S68    C34       1.79469  1_554   S
    S69    C35       1.79468  1_554   S
    C54    N86       1.33702      .   S
    C54    C62       1.39564      .   S
    C54    S76       1.79530  1_554   S
    C55    N87       1.33701      .   S
    C55    C63       1.39568      .   S
    C55    S77       1.79530  1_554   S
    C46    C48       1.40200      .   S
    C46    N84       1.34404      .   S
    C47    C49       1.40199      .   S
    C47    N85       1.34404      .   S
    N87    C57       1.34436      .   S
    N86    C56       1.34436      .   S
    C48    C51       1.40115      .   S
    C49    C50       1.40099  1_655   S
    N85    C45       1.33730      .   S
    N84    C44       1.33732      .   S
    H23    C63       1.08728      .   S
    H22    C62       1.08730      .   S
    C62    C60       1.38764      .   S
    C63    C61       1.38764      .   S
    C50    H14       1.08808      .   S
    C50    C52       1.38762      .   S
    C51    H15       1.08806      .   S
    C51    C53       1.38760      .   S
    C44    S72       1.79530  1_545   S
    C44    C53       1.39566      .   S
    C45    S73       1.79528  1_545   S
    C45    C52       1.39558  1_655   S
    C57    H19       1.09053      .   S
    C57    C59       1.40201      .   S
    C56    H18       1.09050      .   S
    C56    C58       1.40199      .   S
    S72    S75       2.04019      .   S
    S73    S74       2.04010  1_655   S
    C53    H17       1.08730      .   S
    C52    H16       1.08195      .   S
    C61    C59       1.40112      .   S
    C61    H21       1.08808      .   S
    C60    C58       1.40112      .   S
    C60    H20       1.08808      .   S
    S67    S64       2.03974  1_655   S
    S66    S65       2.03983      .   S
    H8     C40       1.08809      .   S
    H9     C41       1.08808      .   S
    H5     C33       1.08731      .   S
    H4     C32       1.08727      .   S
    C38    C40       1.40111      .   S
    C38    C36       1.40202      .   S
    C39    C41       1.40111      .   S
    C39    C37       1.40201      .   S
    C40    C42       1.38763      .   S
    C41    C43       1.38764      .   S
    C32    C25       1.39565      .   S
    C32    C30       1.38733      .   S
    C33    C24       1.39557  1_655   S
    C33    C31       1.38763      .   S
    S65    C25       1.79574  1_545   S
    S64    C24       1.79572  1_545   S
    H2     C30       1.08812      .   S
    H3     C31       1.08807      .   S
    H7     C37       1.09053      .   S
    H6     C36       1.09054      .   S
    C37    N83       1.34436      .   S
    C36    N82       1.34435      .   S
    C25    N81       1.33700      .   S
    C24    N80       1.33699      .   S
    C30    C29       1.40136      .   S
    C31    C28       1.40104  1_655   S
    C42    H10       1.08728      .   S
    C42    C34       1.39568      .   S
    C43    H11       1.08728      .   S
    C43    C35       1.39568      .   S
    N81    C27       1.34439      .   S
    N80    C26       1.34438      .   S
    C29    C27       1.40198      .   S
    C28    C26       1.40200      .   S
    N83    C35       1.33701      .   S
    N82    C34       1.33702      .   S
    C27    H1        1.09054      .   S
    C26    H0        1.08998      .   S
    S77    S79       2.03984      .   S
    S76    S78       2.03982      .   S
