# CIF file generated by openbabel 2.4.90, see http://openbabel.sf.net
data_I
_chemical_name_common ''
_cell_length_a 22.684
_cell_length_b 12.99
_cell_length_c 12.986
_cell_angle_alpha 117.495
_cell_angle_beta 94.955
_cell_angle_gamma 85.039
_space_group_name_H-M_alt 'P 1'
_space_group_name_Hall 'P 1'
loop_
    _symmetry_equiv_pos_as_xyz
    x,y,z
loop_
    _atom_site_label
    _atom_site_type_symbol
    _atom_site_fract_x
    _atom_site_fract_y
    _atom_site_fract_z
    _atom_site_occupancy
    H0      H    0.37365   0.79655   0.30266   1.000
    H1      H    0.87365   0.79655   0.30266   1.000
    H2      H    0.05791   0.74744   0.38819   1.000
    H3      H    0.55792   0.74744   0.38819   1.000
    H4      H    0.04156   0.90034   0.59164   1.000
    H5      H    0.54156   0.90034   0.59164   1.000
    H6      H    0.37636   0.30264   0.79657   1.000
    H7      H    0.87636   0.30264   0.79657   1.000
    H8      H    0.19210   0.38816   0.74730   1.000
    H9      H    0.69210   0.38816   0.74730   1.000
    H10     H    0.20844   0.59157   0.90025   1.000
    H11     H    0.70844   0.59157   0.90025   1.000
    H12     H    0.12635   0.20345   0.69735   1.000
    H13     H    0.62635   0.20345   0.69735   1.000
    H14     H    0.44209   0.25256   0.61182   1.000
    H15     H    0.94209   0.25256   0.61182   1.000
    H16     H    0.45845   0.09966   0.40837   1.000
    H17     H    0.95845   0.09966   0.40837   1.000
    H18     H    0.12365   0.69735   0.20340   1.000
    H19     H    0.62365   0.69735   0.20340   1.000
    H20     H    0.30790   0.61183   0.25264   1.000
    H21     H    0.80791   0.61183   0.25264   1.000
    H22     H    0.29156   0.40842   0.09975   1.000
    H23     H    0.79156   0.40842   0.09975   1.000
    C24     C    0.46650   0.75759   0.33020   1.000
    C25     C    0.96651   0.75758   0.33023   1.000
    C26     C    0.41191   0.81692   0.36406   1.000
    C27     C    0.91191   0.81691   0.36406   1.000
    C28     C    0.01420   0.78963   0.41312   1.000
    C29     C    0.51420   0.78963   0.41312   1.000
    C30     C    0.00527   0.87460   0.52566   1.000
    C31     C    0.50527   0.87460   0.52566   1.000
    C32     C    0.44880   0.92883   0.55377   1.000
    C33     C    0.94880   0.92883   0.55377   1.000
    C34     C    0.28351   0.33020   0.75756   1.000
    C35     C    0.78351   0.33020   0.75750   1.000
    C36     C    0.33810   0.36404   0.81691   1.000
    C37     C    0.83810   0.36404   0.81691   1.000
    C38     C    0.23581   0.41309   0.78957   1.000
    C39     C    0.73581   0.41309   0.78957   1.000
    C40     C    0.24473   0.52560   0.87455   1.000
    C41     C    0.74474   0.52560   0.87455   1.000
    C42     C    0.30120   0.55370   0.92880   1.000
    C43     C    0.80120   0.55370   0.92880   1.000
    C44     C    0.03350   0.24241   0.66978   1.000
    C45     C    0.53350   0.24241   0.66978   1.000
    C46     C    0.08809   0.18308   0.63595   1.000
    C47     C    0.58809   0.18308   0.63595   1.000
    C48     C    0.48580   0.21037   0.58689   1.000
    C49     C    0.98580   0.21037   0.58689   1.000
    C50     C    0.49474   0.12541   0.47435   1.000
    C51     C    0.99474   0.12540   0.47435   1.000
    C52     C    0.05121   0.07116   0.44624   1.000
    C53     C    0.55121   0.07116   0.44624   1.000
    C54     C    0.21649   0.66979   0.24245   1.000
    C55     C    0.71650   0.66979   0.24245   1.000
    C56     C    0.16191   0.63596   0.18310   1.000
    C57     C    0.66191   0.63596   0.18310   1.000
    C58     C    0.26419   0.58690   0.21044   1.000
    C59     C    0.76420   0.58691   0.21044   1.000
    C60     C    0.25527   0.47440   0.12545   1.000
    C61     C    0.75527   0.47440   0.12540   1.000
    C62     C    0.19880   0.44629   0.07121   1.000
    C63     C    0.69880   0.44629   0.07121   1.000
    N64     N    0.40265   0.90157   0.47336   1.000
    N65     N    0.90266   0.90157   0.47336   1.000
    N66     N    0.34734   0.47332   0.90155   1.000
    N67     N    0.84735   0.47332   0.90155   1.000
    N68     N    0.09735   0.09843   0.52660   1.000
    N69     N    0.59735   0.09843   0.52660   1.000
    N70     N    0.15266   0.52668   0.09840   1.000
    N71     N    0.65266   0.52668   0.09846   1.000
loop_
    _geom_bond_atom_site_label_1
    _geom_bond_atom_site_label_2
    _geom_bond_distance
    _geom_bond_site_symmetry_2
    _ccdc_geom_bond_type
    C63    N71       1.35832      .   S
    C63    C61       1.39898      .   S
    C62    N70       1.35833      .   S
    C62    C60       1.39917      .   S
    N70    C56       1.35606      .   S
    N71    C57       1.35583      .   S
    H22    C60       1.08856      .   S
    H23    C61       1.08853      .   S
    C61    C59       1.38520      .   S
    C60    C58       1.38500      .   S
    C57    H19       1.08832      .   S
    C57    C55       1.39173      .   S
    C56    H18       1.08830      .   S
    C56    C54       1.39173      .   S
    C58    C54       1.40206      .   S
    C58    H20       1.08908      .   S
    C59    C55       1.40205      .   S
    C59    H21       1.08908      .   S
    H0     C26       1.08826      .   S
    H1     C27       1.08827      .   S
    C24    C26       1.39176      .   S
    C24    C29       1.40224      .   S
    C25    C27       1.39169      .   S
    C25    C28       1.40195  1_655   S
    C27    N65       1.35584      .   S
    C26    N64       1.35583      .   S
    H3     C29       1.08910      .   S
    H2     C28       1.08910      .   S
    H17    C51       1.08853      .   S
    H16    C50       1.08853      .   S
    C29    C31       1.38498      .   S
    C28    C30       1.38498      .   S
    C53    C50       1.39922      .   S
    C53    N69       1.35798      .   S
    C52    C51       1.39913  1_455   S
    C52    N68       1.35796      .   S
    N65    C33       1.35836      .   S
    N64    C32       1.35836      .   S
    C50    C48       1.38497      .   S
    C51    C49       1.38498      .   S
    C30    C33       1.39912  1_455   S
    C30    H4        1.08853      .   S
    C31    C32       1.39923      .   S
    C31    H5        1.08853      .   S
    N69    C47       1.35628      .   S
    N68    C46       1.35628      .   S
    C49    H15       1.08910      .   S
    C49    C44       1.40193  1_655   S
    C48    H14       1.08908      .   S
    C48    C45       1.40203      .   S
    C46    C44       1.39171      .   S
    C46    H12       1.08826      .   S
    C47    C45       1.39169      .   S
    C47    H13       1.08827      .   S
    H9     C39       1.08934      .   S
    H8     C38       1.08934      .   S
    C35    C39       1.40206      .   S
    C35    C37       1.39199      .   S
    C34    C38       1.40205      .   S
    C34    C36       1.39173      .   S
    C39    C41       1.38497      .   S
    C38    C40       1.38498      .   S
    H7     C37       1.08830      .   S
    H6     C36       1.08830      .   S
    C37    N67       1.35583      .   S
    C36    N66       1.35583      .   S
    C40    H10       1.08854      .   S
    C40    C42       1.39921      .   S
    C41    H11       1.08856      .   S
    C41    C43       1.39919      .   S
    N67    C43       1.35832      .   S
    N66    C42       1.35831      .   S
