# CIF file generated by openbabel 2.4.90, see http://openbabel.sf.net
data_I
_chemical_name_common ''
_cell_length_a 22.684
_cell_length_b 12.99
_cell_length_c 12.986
_cell_angle_alpha 117.495
_cell_angle_beta 94.955
_cell_angle_gamma 85.039
_space_group_name_H-M_alt 'P 1'
_space_group_name_Hall 'P 1'
loop_
    _symmetry_equiv_pos_as_xyz
    x,y,z
loop_
    _atom_site_label
    _atom_site_type_symbol
    _atom_site_fract_x
    _atom_site_fract_y
    _atom_site_fract_z
    _atom_site_occupancy
    Mc0     Mc   0.74142   0.16695   0.13669   1.000
    Mc1     Mc   0.00860   0.13674   0.16687   1.000
    Mc2     Mc   0.50860   0.13674   0.16693   1.000
    Mc3     Mc   0.25859   0.83305   0.86332   1.000
    Mc4     Mc   0.24142   0.16695   0.13669   1.000
    Mc5     Mc   0.49140   0.86326   0.83306   1.000
    Mc6     Mc   0.99140   0.86326   0.83306   1.000
    Mc7     Mc   0.75859   0.83305   0.86332   1.000
