# CIF file generated by openbabel 2.4.90, see http://openbabel.sf.net
data_I
_chemical_name_common ''
_cell_length_a 22.684
_cell_length_b 12.99
_cell_length_c 12.986
_cell_angle_alpha 117.495
_cell_angle_beta 94.955
_cell_angle_gamma 85.039
_space_group_name_H-M_alt 'P 1'
_space_group_name_Hall 'P 1'
loop_
    _symmetry_equiv_pos_as_xyz
    x,y,z
loop_
    _atom_site_label
    _atom_site_type_symbol
    _atom_site_fract_x
    _atom_site_fract_y
    _atom_site_fract_z
    _atom_site_occupancy
    Lv0     Lv   0.71916   0.56196   0.16521   1.000
    Lv1     Lv   0.03084   0.16517   0.56193   1.000
    Lv2     Lv   0.53084   0.16517   0.56193   1.000
    Lv3     Lv   0.28084   0.43804   0.83478   1.000
    Lv4     Lv   0.21916   0.56196   0.16520   1.000
    Lv5     Lv   0.46916   0.83483   0.43807   1.000
    Lv6     Lv   0.96916   0.83483   0.43808   1.000
    Lv7     Lv   0.78085   0.43804   0.83478   1.000
