# CIF file generated by openbabel 2.4.90, see http://openbabel.sf.net
data_I
_chemical_name_common ''
_cell_length_a 22.684
_cell_length_b 12.99
_cell_length_c 12.986
_cell_angle_alpha 117.495
_cell_angle_beta 94.955
_cell_angle_gamma 85.039
_space_group_name_H-M_alt 'P 1'
_space_group_name_Hall 'P 1'
loop_
    _symmetry_equiv_pos_as_xyz
    x,y,z
loop_
    _atom_site_label
    _atom_site_type_symbol
    _atom_site_fract_x
    _atom_site_fract_y
    _atom_site_fract_z
    _atom_site_occupancy
    H0      H    0.37365   0.79655   0.30266   1.000
    H1      H    0.87365   0.79655   0.30266   1.000
    H2      H    0.05791   0.74744   0.38819   1.000
    H3      H    0.55792   0.74744   0.38819   1.000
    H4      H    0.04156   0.90034   0.59164   1.000
    H5      H    0.54156   0.90034   0.59164   1.000
    H6      H    0.09459   0.81852   0.96890   1.000
    H7      H    0.59459   0.81853   0.96898   1.000
    H8      H    0.42278   0.70581   0.80630   1.000
    H9      H    0.92278   0.70581   0.80630   1.000
    H10     H    0.41709   0.86460   0.74430   1.000
    H11     H    0.91709   0.86460   0.74430   1.000
    H12     H    0.37636   0.30264   0.79657   1.000
    H13     H    0.87636   0.30264   0.79657   1.000
    H14     H    0.19210   0.38816   0.74730   1.000
    H15     H    0.69210   0.38816   0.74730   1.000
    H16     H    0.20844   0.59157   0.90025   1.000
    H17     H    0.70844   0.59157   0.90025   1.000
    H18     H    0.15541   0.96906   0.81873   1.000
    H19     H    0.65541   0.96907   0.81873   1.000
    H20     H    0.32720   0.80633   0.70582   1.000
    H21     H    0.82720   0.80633   0.70582   1.000
    H22     H    0.33289   0.74422   0.86457   1.000
    H23     H    0.83289   0.74422   0.86457   1.000
    H24     H    0.12635   0.20345   0.69735   1.000
    H25     H    0.62635   0.20345   0.69735   1.000
    H26     H    0.44209   0.25256   0.61182   1.000
    H27     H    0.94209   0.25256   0.61182   1.000
    H28     H    0.45845   0.09966   0.40837   1.000
    H29     H    0.95845   0.09966   0.40837   1.000
    H30     H    0.40541   0.18147   0.03100   1.000
    H31     H    0.90541   0.18147   0.03104   1.000
    H32     H    0.07722   0.29418   0.19370   1.000
    H33     H    0.57722   0.29418   0.19370   1.000
    H34     H    0.08292   0.13538   0.25500   1.000
    H35     H    0.58292   0.13539   0.25570   1.000
    H36     H    0.12365   0.69735   0.20340   1.000
    H37     H    0.62365   0.69735   0.20340   1.000
    H38     H    0.30790   0.61183   0.25264   1.000
    H39     H    0.80791   0.61183   0.25264   1.000
    H40     H    0.29156   0.40842   0.09975   1.000
    H41     H    0.79156   0.40842   0.09975   1.000
    H42     H    0.34459   0.03093   0.18127   1.000
    H43     H    0.84459   0.03093   0.18128   1.000
    H44     H    0.17280   0.19368   0.29419   1.000
    H45     H    0.67281   0.19367   0.29419   1.000
    H46     H    0.16712   0.25578   0.13544   1.000
    H47     H    0.66712   0.25578   0.13544   1.000
    C48     C    0.46650   0.75759   0.33020   1.000
    C49     C    0.96651   0.75758   0.33023   1.000
    C50     C    0.41191   0.81692   0.36406   1.000
    C51     C    0.91191   0.81691   0.36406   1.000
    C52     C    0.01420   0.78963   0.41312   1.000
    C53     C    0.51420   0.78963   0.41312   1.000
    C54     C    0.00527   0.87460   0.52566   1.000
    C55     C    0.50527   0.87460   0.52566   1.000
    C56     C    0.44880   0.92883   0.55377   1.000
    C57     C    0.94880   0.92883   0.55377   1.000
    C58     C    0.00311   0.92283   0.82780   1.000
    C59     C    0.50311   0.92283   0.82780   1.000
    C60     C    0.05434   0.82618   0.92008   1.000
    C61     C    0.55434   0.82618   0.92008   1.000
    C62     C    0.00847   0.75067   0.89351   1.000
    C63     C    0.50848   0.75066   0.89350   1.000
    C64     C    0.45855   0.76440   0.82860   1.000
    C65     C    0.95855   0.76440   0.82864   1.000
    C66     C    0.45538   0.85112   0.79396   1.000
    C67     C    0.95538   0.85111   0.79396   1.000
    C68     C    0.28351   0.33020   0.75756   1.000
    C69     C    0.78351   0.33020   0.75750   1.000
    C70     C    0.33810   0.36404   0.81691   1.000
    C71     C    0.83810   0.36404   0.81691   1.000
    C72     C    0.23581   0.41309   0.78957   1.000
    C73     C    0.73581   0.41309   0.78957   1.000
    C74     C    0.24473   0.52560   0.87455   1.000
    C75     C    0.74474   0.52560   0.87455   1.000
    C76     C    0.30120   0.55370   0.92880   1.000
    C77     C    0.80120   0.55370   0.92880   1.000
    C78     C    0.24687   0.82777   0.92291   1.000
    C79     C    0.74687   0.82777   0.92291   1.000
    C80     C    0.19566   0.92014   0.82633   1.000
    C81     C    0.69566   0.92014   0.82633   1.000
    C82     C    0.24152   0.89356   0.75077   1.000
    C83     C    0.74152   0.89356   0.75077   1.000
    C84     C    0.29143   0.82865   0.76444   1.000
    C85     C    0.79144   0.82865   0.76444   1.000
    C86     C    0.29461   0.79395   0.85116   1.000
    C87     C    0.79461   0.79395   0.85116   1.000
    C88     C    0.03350   0.24241   0.66978   1.000
    C89     C    0.53350   0.24241   0.66978   1.000
    C90     C    0.08809   0.18308   0.63595   1.000
    C91     C    0.58809   0.18308   0.63595   1.000
    C92     C    0.48580   0.21037   0.58689   1.000
    C93     C    0.98580   0.21037   0.58689   1.000
    C94     C    0.49474   0.12541   0.47435   1.000
    C95     C    0.99474   0.12540   0.47435   1.000
    C96     C    0.05121   0.07116   0.44624   1.000
    C97     C    0.55121   0.07116   0.44624   1.000
    C98     C    0.49689   0.07717   0.17221   1.000
    C99     C    0.99689   0.07716   0.17221   1.000
    C100    C    0.44566   0.17382   0.07993   1.000
    C101    C    0.94567   0.17382   0.07993   1.000
    C102    C    0.49153   0.24933   0.10650   1.000
    C103    C    0.99153   0.24933   0.10650   1.000
    C104    C    0.04145   0.23559   0.17136   1.000
    C105    C    0.54146   0.23559   0.17137   1.000
    C106    C    0.04463   0.14888   0.20604   1.000
    C107    C    0.54463   0.14888   0.20604   1.000
    C108    C    0.21649   0.66979   0.24245   1.000
    C109    C    0.71650   0.66979   0.24245   1.000
    C110    C    0.16191   0.63596   0.18310   1.000
    C111    C    0.66191   0.63596   0.18310   1.000
    C112    C    0.26419   0.58690   0.21044   1.000
    C113    C    0.76420   0.58691   0.21044   1.000
    C114    C    0.25527   0.47440   0.12545   1.000
    C115    C    0.75527   0.47440   0.12540   1.000
    C116    C    0.19880   0.44629   0.07121   1.000
    C117    C    0.69880   0.44629   0.07121   1.000
    C118    C    0.25313   0.17223   0.07710   1.000
    C119    C    0.75313   0.17223   0.07710   1.000
    C120    C    0.30434   0.07986   0.17368   1.000
    C121    C    0.80435   0.07986   0.17368   1.000
    C122    C    0.25848   0.10643   0.24924   1.000
    C123    C    0.75849   0.10643   0.24924   1.000
    C124    C    0.20857   0.17136   0.23557   1.000
    C125    C    0.70857   0.17136   0.23557   1.000
    C126    C    0.20539   0.20605   0.14885   1.000
    C127    C    0.70539   0.20605   0.14885   1.000
    S128    S    0.00741   0.04213   0.79536   1.000
    S129    S    0.50742   0.04213   0.79536   1.000
    S130    S    0.43194   0.03800   0.69629   1.000
    S131    S    0.93194   0.03800   0.69629   1.000
    S132    S    0.24257   0.79524   0.04210   1.000
    S133    S    0.74257   0.79524   0.04210   1.000
    S134    S    0.31805   0.69617   0.03796   1.000
    S135    S    0.81805   0.69617   0.03796   1.000
    S136    S    0.49259   0.95787   0.20460   1.000
    S137    S    0.99259   0.95787   0.20460   1.000
    S138    S    0.06806   0.96199   0.30372   1.000
    S139    S    0.56806   0.96199   0.30372   1.000
    S140    S    0.25744   0.20476   0.95786   1.000
    S141    S    0.75744   0.20476   0.95786   1.000
    S142    S    0.18196   0.30382   0.96205   1.000
    S143    S    0.68196   0.30382   0.96205   1.000
    N144    N    0.05175   0.91157   0.88847   1.000
    N145    N    0.55175   0.91157   0.88847   1.000
    N146    N    0.40265   0.90157   0.47336   1.000
    N147    N    0.90266   0.90157   0.47336   1.000
    N148    N    0.19824   0.88847   0.91170   1.000
    N149    N    0.69825   0.88847   0.91170   1.000
    N150    N    0.34734   0.47332   0.90155   1.000
    N151    N    0.84735   0.47332   0.90155   1.000
    N152    N    0.44825   0.08843   0.11150   1.000
    N153    N    0.94826   0.08843   0.11150   1.000
    N154    N    0.09735   0.09843   0.52660   1.000
    N155    N    0.59735   0.09843   0.52660   1.000
    N156    N    0.30176   0.11152   0.08831   1.000
    N157    N    0.80176   0.11153   0.08831   1.000
    N158    N    0.15266   0.52668   0.09840   1.000
    N159    N    0.65266   0.52668   0.09846   1.000
loop_
    _geom_bond_atom_site_label_1
    _geom_bond_atom_site_label_2
    _geom_bond_distance
    _geom_bond_site_symmetry_2
    _ccdc_geom_bond_type
    H30    C100      1.09076      .   S
    H31    C101      1.09048      .   S
    S134   S132      2.03994      .   S
    S134   C76       1.78520  1_554   S
    S135   S133      2.03996      .   S
    S135   C77       1.78522  1_554   S
    S132   C78       1.79469  1_554   S
    S133   C79       1.79468  1_554   S
    C117   N159      1.35832      .   S
    C117   C115      1.39898      .   S
    C117   S143      1.78522  1_554   S
    C116   N158      1.35833      .   S
    C116   C114      1.39917      .   S
    C116   S142      1.78521  1_554   S
    C118   N156      1.33702      .   S
    C118   C126      1.39564      .   S
    C118   S140      1.79530  1_554   S
    C119   N157      1.33701      .   S
    C119   C127      1.39568      .   S
    C119   S141      1.79530  1_554   S
    C100   C102      1.40200      .   S
    C100   N152      1.34404      .   S
    C101   C103      1.40199      .   S
    C101   N153      1.34404      .   S
    N157   C121      1.34436      .   S
    N156   C120      1.34436      .   S
    N158   C110      1.35606      .   S
    N159   C111      1.35583      .   S
    H40    C114      1.08856      .   S
    H41    C115      1.08853      .   S
    C102   C105      1.40115      .   S
    C103   C104      1.40099  1_655   S
    N153   C99       1.33730      .   S
    N152   C98       1.33732      .   S
    C115   C113      1.38520      .   S
    C114   C112      1.38500      .   S
    H47    C127      1.08728      .   S
    H46    C126      1.08730      .   S
    C126   C124      1.38764      .   S
    C127   C125      1.38764      .   S
    C104   H32       1.08808      .   S
    C104   C106      1.38762      .   S
    C105   H33       1.08806      .   S
    C105   C107      1.38760      .   S
    C98    S136      1.79530  1_545   S
    C98    C107      1.39566      .   S
    C99    S137      1.79528  1_545   S
    C99    C106      1.39558  1_655   S
    C121   H43       1.09053      .   S
    C121   C123      1.40201      .   S
    C120   H42       1.09050      .   S
    C120   C122      1.40199      .   S
    C111   H37       1.08832      .   S
    C111   C109      1.39173      .   S
    C110   H36       1.08830      .   S
    C110   C108      1.39173      .   S
    S136   S139      2.04019      .   S
    S137   S138      2.04010  1_655   S
    C107   H35       1.08730      .   S
    C106   H34       1.08195      .   S
    C112   C108      1.40206      .   S
    C112   H38       1.08908      .   S
    C113   C109      1.40205      .   S
    C113   H39       1.08908      .   S
    C125   C123      1.40112      .   S
    C125   H45       1.08808      .   S
    C124   C122      1.40112      .   S
    C124   H44       1.08808      .   S
    H0     C50       1.08826      .   S
    H1     C51       1.08827      .   S
    S138   C96       1.78539  1_565   S
    S139   C97       1.78540  1_565   S
    C48    C50       1.39176      .   S
    C48    C53       1.40224      .   S
    C49    C51       1.39169      .   S
    C49    C52       1.40195  1_655   S
    C51    N147      1.35584      .   S
    C50    N146      1.35583      .   S
    H3     C53       1.08910      .   S
    H2     C52       1.08910      .   S
    H29    C95       1.08853      .   S
    H28    C94       1.08853      .   S
    C53    C55       1.38498      .   S
    C52    C54       1.38498      .   S
    C97    C94       1.39922      .   S
    C97    N155      1.35798      .   S
    C96    C95       1.39913  1_455   S
    C96    N154      1.35796      .   S
    N147   C57       1.35836      .   S
    N146   C56       1.35836      .   S
    C94    C92       1.38497      .   S
    C95    C93       1.38498      .   S
    C54    C57       1.39912  1_455   S
    C54    H4        1.08853      .   S
    C55    C56       1.39923      .   S
    C55    H5        1.08853      .   S
    N155   C91       1.35628      .   S
    N154   C90       1.35628      .   S
    C56    S130      1.78539  1_565   S
    C57    S131      1.78539  1_565   S
    C93    H27       1.08910      .   S
    C93    C88       1.40193  1_655   S
    C92    H26       1.08908      .   S
    C92    C89       1.40203      .   S
    C90    C88       1.39171      .   S
    C90    H24       1.08826      .   S
    C91    C89       1.39169      .   S
    C91    H25       1.08827      .   S
    S131   S128      2.03974  1_655   S
    S130   S129      2.03983      .   S
    H20    C84       1.08809      .   S
    H21    C85       1.08808      .   S
    H11    C67       1.08731      .   S
    H10    C66       1.08727      .   S
    H15    C73       1.08934      .   S
    H14    C72       1.08934      .   S
    C82    C84       1.40111      .   S
    C82    C80       1.40202      .   S
    C83    C85       1.40111      .   S
    C83    C81       1.40201      .   S
    C69    C73       1.40206      .   S
    C69    C71       1.39199      .   S
    C68    C72       1.40205      .   S
    C68    C70       1.39173      .   S
    C84    C86       1.38763      .   S
    C85    C87       1.38764      .   S
    C73    C75       1.38497      .   S
    C72    C74       1.38498      .   S
    C66    C59       1.39565      .   S
    C66    C64       1.38733      .   S
    C67    C58       1.39557  1_655   S
    C67    C65       1.38763      .   S
    S129   C59       1.79574  1_545   S
    S128   C58       1.79572  1_545   S
    H13    C71       1.08830      .   S
    H12    C70       1.08830      .   S
    H8     C64       1.08812      .   S
    H9     C65       1.08807      .   S
    C71    N151      1.35583      .   S
    C70    N150      1.35583      .   S
    H19    C81       1.09053      .   S
    H18    C80       1.09054      .   S
    C81    N149      1.34436      .   S
    C80    N148      1.34435      .   S
    C59    N145      1.33700      .   S
    C58    N144      1.33699      .   S
    C64    C63       1.40136      .   S
    C65    C62       1.40104  1_655   S
    C86    H22       1.08728      .   S
    C86    C78       1.39568      .   S
    C87    H23       1.08728      .   S
    C87    C79       1.39568      .   S
    C74    H16       1.08854      .   S
    C74    C76       1.39921      .   S
    C75    H17       1.08856      .   S
    C75    C77       1.39919      .   S
    N145   C61       1.34439      .   S
    N144   C60       1.34438      .   S
    C63    C61       1.40198      .   S
    C62    C60       1.40200      .   S
    N151   C77       1.35832      .   S
    N150   C76       1.35831      .   S
    N149   C79       1.33701      .   S
    N148   C78       1.33702      .   S
    C61    H7        1.09054      .   S
    C60    H6        1.08998      .   S
    S141   S143      2.03984      .   S
    S140   S142      2.03982      .   S
