# CIF file generated by openbabel 2.4.90, see http://openbabel.sf.net
data_I
_chemical_name_common ''
_cell_length_a 22.684
_cell_length_b 12.99
_cell_length_c 12.986
_cell_angle_alpha 117.495
_cell_angle_beta 94.955
_cell_angle_gamma 85.039
_space_group_name_H-M_alt 'P 1'
_space_group_name_Hall 'P 1'
loop_
    _symmetry_equiv_pos_as_xyz
    x,y,z
loop_
    _atom_site_label
    _atom_site_type_symbol
    _atom_site_fract_x
    _atom_site_fract_y
    _atom_site_fract_z
    _atom_site_occupancy
    Zn0     Zn   0.93509   0.49516   0.97368   1.000
    Zn1     Zn   0.31492   0.97366   0.49510   1.000
    Zn2     Zn   0.81492   0.97366   0.49510   1.000
    Zn3     Zn   0.06492   0.50484   0.02633   1.000
    Zn4     Zn   0.56492   0.50484   0.02633   1.000
    Zn5     Zn   0.18509   0.02634   0.50485   1.000
    Zn6     Zn   0.68509   0.02634   0.50485   1.000
    Zn7     Zn   0.43508   0.49516   0.97368   1.000
    C8      C    0.47486   0.66292   0.20860   1.000
    C9      C    0.97486   0.66292   0.20860   1.000
    C10     C    0.01029   0.65991   0.93488   1.000
    C11     C    0.51029   0.65991   0.93488   1.000
    C12     C    0.27516   0.20865   0.66292   1.000
    C13     C    0.77516   0.20865   0.66292   1.000
    O14     O    0.82162   0.14511   0.62089   1.000
    O15     O    0.44005   0.36695   0.02759   1.000
    O16     O    0.94005   0.36695   0.02760   1.000
    O17     O    0.03923   0.38271   0.07094   1.000
    C18     C    0.23970   0.93498   0.66002   1.000
    C19     C    0.73971   0.93498   0.66002   1.000
    C20     C    0.02514   0.33708   0.79134   1.000
    C21     C    0.52515   0.33708   0.79134   1.000
    C22     C    0.48971   0.34009   0.06510   1.000
    C23     C    0.98972   0.34009   0.06510   1.000
    C24     C    0.22485   0.79134   0.33709   1.000
    C25     C    0.72485   0.79134   0.33709   1.000
    C26     C    0.26030   0.06502   0.33999   1.000
    C27     C    0.76030   0.06502   0.33999   1.000
    O28     O    0.05996   0.63304   0.97241   1.000
    O29     O    0.55996   0.63305   0.97240   1.000
    O30     O    0.46077   0.61729   0.92907   1.000
    O31     O    0.96077   0.61729   0.92907   1.000
    O32     O    0.02815   0.63274   0.18066   1.000
    O33     O    0.52815   0.63274   0.18066   1.000
    O34     O    0.42840   0.62091   0.14512   1.000
    O35     O    0.92840   0.62092   0.14512   1.000
    O36     O    0.19004   0.97251   0.63317   1.000
    O37     O    0.69004   0.97252   0.63317   1.000
    O38     O    0.28922   0.92913   0.61736   1.000
    O39     O    0.78922   0.92913   0.61736   1.000
    O40     O    0.22186   0.18067   0.63274   1.000
    O41     O    0.72186   0.18067   0.63274   1.000
    O42     O    0.32161   0.14511   0.62089   1.000
    O43     O    0.53924   0.38271   0.07094   1.000
    O44     O    0.47185   0.36726   0.81935   1.000
    O45     O    0.97185   0.36726   0.81935   1.000
    O46     O    0.07160   0.37908   0.85489   1.000
    O47     O    0.57160   0.37908   0.85489   1.000
    O48     O    0.30997   0.02748   0.36683   1.000
    O49     O    0.80997   0.02748   0.36683   1.000
    O50     O    0.21078   0.07087   0.38265   1.000
    O51     O    0.71078   0.07087   0.38265   1.000
    O52     O    0.27814   0.81933   0.36727   1.000
    O53     O    0.77814   0.81933   0.36727   1.000
    O54     O    0.17839   0.85489   0.37911   1.000
    O55     O    0.67839   0.85489   0.37910   1.000
loop_
    _geom_bond_atom_site_label_1
    _geom_bond_atom_site_label_2
    _geom_bond_distance
    _geom_bond_site_symmetry_2
    _ccdc_geom_bond_type
    Zn3    O17       2.06368      .   S
    Zn3    O32       2.10880      .   S
    Zn3    O46       2.07496  1_554   S
    Zn3    O28       2.07538  1_554   S
    Zn4    O43       2.06371      .   S
    Zn4    O33       2.10878      .   S
    Zn4    O47       2.07496  1_554   S
    Zn4    O29       2.07551  1_554   S
    O15    C22       1.27381      .   S
    O15    Zn7       2.07533  1_554   S
    O16    C23       1.27378      .   S
    O16    Zn0       2.07538  1_554   S
    C23    O17       1.27588  1_655   S
    C22    O43       1.27596      .   S
    O34    C8        1.27355      .   S
    O34    Zn7       2.07496  1_554   S
    O35    C9        1.27354      .   S
    O35    Zn0       2.07496  1_554   S
    O33    C8        1.26863      .   S
    O32    C9        1.26852  1_455   S
    C24    O52       1.26881      .   S
    C24    O54       1.27390      .   S
    C25    O53       1.26883      .   S
    C25    O55       1.27385      .   S
    C26    O48       1.27390      .   S
    C26    O50       1.27604      .   S
    C27    O49       1.27387      .   S
    C27    O51       1.27606      .   S
    O49    Zn2       2.07496  1_545   S
    O48    Zn1       2.07496  1_545   S
    O53    Zn2       2.10895      .   S
    O52    Zn1       2.10895      .   S
    O55    Zn6       2.07542  1_565   S
    O54    Zn5       2.07538  1_565   S
    O50    Zn5       2.06352      .   S
    O51    Zn6       2.06352      .   S
    Zn2    O39       2.06422      .   S
    Zn2    O14       2.07558  1_565   S
    Zn1    O38       2.06421      .   S
    Zn1    O42       2.07559  1_565   S
    Zn5    O40       2.10920      .   S
    Zn5    O36       2.07559  1_545   S
    Zn6    O41       2.10922      .   S
    Zn6    O37       2.07558  1_545   S
    O39    C19       1.27605      .   S
    O38    C18       1.27607      .   S
    O42    C12       1.27389      .   S
    O14    C13       1.27390      .   S
    O41    C13       1.26881      .   S
    O40    C12       1.26883      .   S
    O37    C19       1.27394      .   S
    O36    C18       1.27393      .   S
    C21    O44       1.26883      .   S
    C21    O47       1.27388      .   S
    C20    O45       1.26872  1_455   S
    C20    O46       1.27388      .   S
    O45    Zn0       2.10880      .   S
    O44    Zn7       2.10879      .   S
    O31    C10       1.27596  1_655   S
    O31    Zn0       2.06367      .   S
    O30    C11       1.27604      .   S
    O30    Zn7       2.06371      .   S
    C10    O28       1.27394      .   S
    C11    O29       1.27387      .   S
    Zn7    Zn4       2.96550  1_556   S
    Zn0    Zn3       2.96541  1_656   S
    Zn1    Zn5       2.96535  1_565   S
    Zn2    Zn6       2.96537  1_565   S
