# CIF file generated by openbabel 2.4.90, see http://openbabel.sf.net
data_I
_chemical_name_common ''
_cell_length_a 22.684
_cell_length_b 12.99
_cell_length_c 12.986
_cell_angle_alpha 117.495
_cell_angle_beta 94.955
_cell_angle_gamma 85.039
_space_group_name_H-M_alt 'P 1'
_space_group_name_Hall 'P 1'
loop_
    _symmetry_equiv_pos_as_xyz
    x,y,z
loop_
    _atom_site_label
    _atom_site_type_symbol
    _atom_site_fract_x
    _atom_site_fract_y
    _atom_site_fract_z
    _atom_site_occupancy
    C0      C    0.47486   0.66292   0.20860   1.000
    C1      C    0.97486   0.66292   0.20860   1.000
    C2      C    0.01029   0.65991   0.93488   1.000
    C3      C    0.51029   0.65991   0.93488   1.000
    C4      C    0.27516   0.20865   0.66292   1.000
    C5      C    0.77516   0.20865   0.66292   1.000
    C6      C    0.23970   0.93498   0.66002   1.000
    C7      C    0.73971   0.93498   0.66002   1.000
    C8      C    0.02514   0.33708   0.79134   1.000
    C9      C    0.52515   0.33708   0.79134   1.000
    C10     C    0.48971   0.34009   0.06510   1.000
    C11     C    0.98972   0.34009   0.06510   1.000
    C12     C    0.22485   0.79134   0.33709   1.000
    C13     C    0.72485   0.79134   0.33709   1.000
    C14     C    0.26030   0.06502   0.33999   1.000
    C15     C    0.76030   0.06502   0.33999   1.000
