# CIF file generated by openbabel 2.4.90, see http://openbabel.sf.net
data_I
_chemical_name_common ''
_cell_length_a 22.684
_cell_length_b 12.99
_cell_length_c 12.986
_cell_angle_alpha 117.495
_cell_angle_beta 94.955
_cell_angle_gamma 85.039
_space_group_name_H-M_alt 'P 1'
_space_group_name_Hall 'P 1'
loop_
    _symmetry_equiv_pos_as_xyz
    x,y,z
loop_
    _atom_site_label
    _atom_site_type_symbol
    _atom_site_fract_x
    _atom_site_fract_y
    _atom_site_fract_z
    _atom_site_occupancy
    N0      N    0.71916   0.56196   0.16521   1.000
    N1      N    0.03084   0.16517   0.56193   1.000
    N2      N    0.53084   0.16517   0.56193   1.000
    N3      N    0.28084   0.43804   0.83478   1.000
    N4      N    0.21916   0.56196   0.16520   1.000
    N5      N    0.46916   0.83483   0.43807   1.000
    N6      N    0.96916   0.83483   0.43808   1.000
    N7      N    0.78085   0.43804   0.83478   1.000
    Zr8     Zr   0.00000   0.50000   1.00000   1.000
    O9      O    0.98496   0.63627   0.17687   1.000
    O10     O    0.01504   0.36373   0.82312   1.000
    O11     O    0.08199   0.51943   0.05689   1.000
    O12     O    0.99981   0.35786   0.06317   1.000
    O13     O    0.00020   0.64214   0.93681   1.000
    O14     O    0.91802   0.48057   0.94310   1.000
    Zr15    Zr   0.75000   1.00000   0.50000   1.000
    O16     O    0.83199   0.94311   0.48058   1.000
    O17     O    0.75020   0.06317   0.35783   1.000
    O18     O    0.74980   0.93683   0.64218   1.000
    O19     O    0.76505   0.17687   0.63625   1.000
    O20     O    0.73496   0.82313   0.36374   1.000
    O21     O    0.66802   0.05689   0.51941   1.000
    Zr22    Zr   0.50000   0.50000   1.00000   1.000
    O23     O    0.41802   0.48057   0.94310   1.000
    O24     O    0.58199   0.51943   0.05690   1.000
    O25     O    0.49981   0.35786   0.06318   1.000
    O26     O    0.48496   0.63627   0.17687   1.000
    O27     O    0.50020   0.64213   0.93681   1.000
    O28     O    0.51504   0.36373   0.82312   1.000
    Zr29    Zr   0.25000   1.00000   0.50000   1.000
    O30     O    0.25020   0.06317   0.35783   1.000
    O31     O    0.23496   0.82313   0.36374   1.000
    O32     O    0.26504   0.17687   0.63626   1.000
    O33     O    0.24980   0.93683   0.64218   1.000
    O34     O    0.16802   0.05689   0.51941   1.000
    O35     O    0.33199   0.94311   0.48058   1.000
loop_
    _geom_bond_atom_site_label_1
    _geom_bond_atom_site_label_2
    _geom_bond_distance
    _geom_bond_site_symmetry_2
    _ccdc_geom_bond_type
    Zr8    O9        2.19141  1_456   S
    N6     O9        3.20292      .   S
    Zr8    O10       2.19143      .   S
    N1     O10       3.20281      .   S
    Zr8    O11       1.93389  1_556   S
    N4     O11       3.28473      .   S
    Zr8    O12       2.34149  1_456   S
    N1     O12       7.91125  1_455   S
    Zr8    O13       2.34163      .   S
    N6     O13       7.91095  1_655   S
    Zr8    O14       1.93390  1_455   S
    N7     O14       3.28474      .   S
    Zr15   O16       1.93383      .   S
    N6     O16       3.28456      .   S
    Zr15   O17       2.34159  1_565   S
    N0     O17       7.91236      .   S
    Zr15   O18       2.34164      .   S
    N7     O18       7.91219      .   S
    Zr15   O19       2.19166  1_565   S
    N7     O19       3.20306      .   S
    Zr15   O20       2.19169      .   S
    N0     O20       3.20308      .   S
    Zr15   O21       1.93383  1_565   S
    N2     O21       3.28459      .   S
    Zr22   O23       1.93392      .   S
    N3     O23       3.28474      .   S
    Zr22   O24       1.93394  1_556   S
    N0     O24       3.28473      .   S
    Zr22   O25       2.34162  1_556   S
    N2     O25       7.91108      .   S
    Zr22   O26       2.19138  1_556   S
    N5     O26       3.20294      .   S
    Zr22   O27       2.34162      .   S
    N5     O27       7.91099      .   S
    Zr22   O28       2.19143      .   S
    N2     O28       3.20280      .   S
    Zr29   O30       2.34159  1_565   S
    N4     O30       7.91236      .   S
    Zr29   O31       2.19169      .   S
    N4     O31       3.20309      .   S
    Zr29   O32       2.19169  1_565   S
    N3     O32       3.20305      .   S
    Zr29   O33       2.34164      .   S
    N3     O33       7.91225      .   S
    Zr29   O34       1.93382  1_565   S
    N1     O34       3.28456      .   S
    Zr29   O35       1.93384      .   S
    N5     O35       3.28459      .   S
