# CIF file generated by openbabel 2.4.90, see http://openbabel.sf.net
data_I
_chemical_name_common ''
_cell_length_a 22.684
_cell_length_b 12.99
_cell_length_c 12.986
_cell_angle_alpha 117.495
_cell_angle_beta 94.955
_cell_angle_gamma 85.039
_space_group_name_H-M_alt 'P 1'
_space_group_name_Hall 'P 1'
loop_
    _symmetry_equiv_pos_as_xyz
    x,y,z
loop_
    _atom_site_label
    _atom_site_type_symbol
    _atom_site_fract_x
    _atom_site_fract_y
    _atom_site_fract_z
    _atom_site_occupancy
    C0      C    0.43508   0.49516   0.97368   1.000
    C1      C    0.93509   0.49516   0.97368   1.000
    C2      C    0.31492   0.97366   0.49510   1.000
    C3      C    0.81492   0.97366   0.49510   1.000
    C4      C    0.06492   0.50484   0.02633   1.000
    C5      C    0.56492   0.50484   0.02633   1.000
    C6      C    0.18509   0.02634   0.50485   1.000
    C7      C    0.68509   0.02634   0.50485   1.000
    C8      C    0.37365   0.79655   0.30266   1.000
    C9      C    0.87365   0.79655   0.30266   1.000
    C10     C    0.05791   0.74744   0.38819   1.000
    C11     C    0.55792   0.74744   0.38819   1.000
    C12     C    0.04156   0.90034   0.59164   1.000
    C13     C    0.54156   0.90034   0.59164   1.000
    C14     C    0.09459   0.81852   0.96890   1.000
    C15     C    0.59459   0.81853   0.96898   1.000
    C16     C    0.42278   0.70581   0.80630   1.000
    C17     C    0.92278   0.70581   0.80630   1.000
    C18     C    0.41709   0.86460   0.74430   1.000
    C19     C    0.91709   0.86460   0.74430   1.000
    C20     C    0.37636   0.30264   0.79657   1.000
    C21     C    0.87636   0.30264   0.79657   1.000
    C22     C    0.19210   0.38816   0.74730   1.000
    C23     C    0.69210   0.38816   0.74730   1.000
    C24     C    0.20844   0.59157   0.90025   1.000
    C25     C    0.70844   0.59157   0.90025   1.000
    C26     C    0.15541   0.96906   0.81873   1.000
    C27     C    0.65541   0.96907   0.81873   1.000
    C28     C    0.32720   0.80633   0.70582   1.000
    C29     C    0.82720   0.80633   0.70582   1.000
    C30     C    0.33289   0.74422   0.86457   1.000
    C31     C    0.83289   0.74422   0.86457   1.000
    C32     C    0.12635   0.20345   0.69735   1.000
    C33     C    0.62635   0.20345   0.69735   1.000
    C34     C    0.44209   0.25256   0.61182   1.000
    C35     C    0.94209   0.25256   0.61182   1.000
    C36     C    0.45845   0.09966   0.40837   1.000
    C37     C    0.95845   0.09966   0.40837   1.000
    C38     C    0.40541   0.18147   0.03100   1.000
    C39     C    0.90541   0.18147   0.03104   1.000
    C40     C    0.07722   0.29418   0.19370   1.000
    C41     C    0.57722   0.29418   0.19370   1.000
    C42     C    0.08292   0.13538   0.25500   1.000
    C43     C    0.58292   0.13539   0.25570   1.000
    C44     C    0.12365   0.69735   0.20340   1.000
    C45     C    0.62365   0.69735   0.20340   1.000
    C46     C    0.30790   0.61183   0.25264   1.000
    C47     C    0.80791   0.61183   0.25264   1.000
    C48     C    0.29156   0.40842   0.09975   1.000
    C49     C    0.79156   0.40842   0.09975   1.000
    C50     C    0.34459   0.03093   0.18127   1.000
    C51     C    0.84459   0.03093   0.18128   1.000
    C52     C    0.17280   0.19368   0.29419   1.000
    C53     C    0.67281   0.19367   0.29419   1.000
    C54     C    0.16712   0.25578   0.13544   1.000
    C55     C    0.66712   0.25578   0.13544   1.000
    C56     C    0.47486   0.66292   0.20860   1.000
    C57     C    0.97486   0.66292   0.20860   1.000
    C58     C    0.46650   0.75759   0.33020   1.000
    C59     C    0.96651   0.75758   0.33023   1.000
    C60     C    0.41191   0.81692   0.36406   1.000
    C61     C    0.91191   0.81691   0.36406   1.000
    C62     C    0.01420   0.78963   0.41312   1.000
    C63     C    0.51420   0.78963   0.41312   1.000
    C64     C    0.00527   0.87460   0.52566   1.000
    C65     C    0.50527   0.87460   0.52566   1.000
    C66     C    0.44880   0.92883   0.55377   1.000
    C67     C    0.94880   0.92883   0.55377   1.000
    C68     C    0.00311   0.92283   0.82780   1.000
    C69     C    0.50311   0.92283   0.82780   1.000
    C70     C    0.05434   0.82618   0.92008   1.000
    C71     C    0.55434   0.82618   0.92008   1.000
    C72     C    0.00847   0.75067   0.89351   1.000
    C73     C    0.50848   0.75066   0.89350   1.000
    C74     C    0.45855   0.76440   0.82860   1.000
    C75     C    0.95855   0.76440   0.82864   1.000
    C76     C    0.01029   0.65991   0.93488   1.000
    C77     C    0.51029   0.65991   0.93488   1.000
    C78     C    0.45538   0.85112   0.79396   1.000
    C79     C    0.95538   0.85111   0.79396   1.000
    C80     C    0.27516   0.20865   0.66292   1.000
    C81     C    0.77516   0.20865   0.66292   1.000
    C82     C    0.28351   0.33020   0.75756   1.000
    C83     C    0.78351   0.33020   0.75750   1.000
    C84     C    0.33810   0.36404   0.81691   1.000
    C85     C    0.83810   0.36404   0.81691   1.000
    C86     C    0.23581   0.41309   0.78957   1.000
    C87     C    0.73581   0.41309   0.78957   1.000
    C88     C    0.24473   0.52560   0.87455   1.000
    C89     C    0.74474   0.52560   0.87455   1.000
    C90     C    0.30120   0.55370   0.92880   1.000
    C91     C    0.80120   0.55370   0.92880   1.000
    C92     C    0.24687   0.82777   0.92291   1.000
    C93     C    0.74687   0.82777   0.92291   1.000
    C94     C    0.19566   0.92014   0.82633   1.000
    C95     C    0.69566   0.92014   0.82633   1.000
    C96     C    0.24152   0.89356   0.75077   1.000
    C97     C    0.74152   0.89356   0.75077   1.000
    C98     C    0.29143   0.82865   0.76444   1.000
    C99     C    0.79144   0.82865   0.76444   1.000
    C100    C    0.23970   0.93498   0.66002   1.000
    C101    C    0.73971   0.93498   0.66002   1.000
    C102    C    0.29461   0.79395   0.85116   1.000
    C103    C    0.79461   0.79395   0.85116   1.000
    C104    C    0.02514   0.33708   0.79134   1.000
    C105    C    0.52515   0.33708   0.79134   1.000
    C106    C    0.03350   0.24241   0.66978   1.000
    C107    C    0.53350   0.24241   0.66978   1.000
    C108    C    0.08809   0.18308   0.63595   1.000
    C109    C    0.58809   0.18308   0.63595   1.000
    C110    C    0.48580   0.21037   0.58689   1.000
    C111    C    0.98580   0.21037   0.58689   1.000
    C112    C    0.49474   0.12541   0.47435   1.000
    C113    C    0.99474   0.12540   0.47435   1.000
    C114    C    0.05121   0.07116   0.44624   1.000
    C115    C    0.55121   0.07116   0.44624   1.000
    C116    C    0.49689   0.07717   0.17221   1.000
    C117    C    0.99689   0.07716   0.17221   1.000
    C118    C    0.44566   0.17382   0.07993   1.000
    C119    C    0.94567   0.17382   0.07993   1.000
    C120    C    0.49153   0.24933   0.10650   1.000
    C121    C    0.99153   0.24933   0.10650   1.000
    C122    C    0.04145   0.23559   0.17136   1.000
    C123    C    0.54146   0.23559   0.17137   1.000
    C124    C    0.48971   0.34009   0.06510   1.000
    C125    C    0.98972   0.34009   0.06510   1.000
    C126    C    0.04463   0.14888   0.20604   1.000
    C127    C    0.54463   0.14888   0.20604   1.000
    C128    C    0.22485   0.79134   0.33709   1.000
    C129    C    0.72485   0.79134   0.33709   1.000
    C130    C    0.21649   0.66979   0.24245   1.000
    C131    C    0.71650   0.66979   0.24245   1.000
    C132    C    0.16191   0.63596   0.18310   1.000
    C133    C    0.66191   0.63596   0.18310   1.000
    C134    C    0.26419   0.58690   0.21044   1.000
    C135    C    0.76420   0.58691   0.21044   1.000
    C136    C    0.25527   0.47440   0.12545   1.000
    C137    C    0.75527   0.47440   0.12540   1.000
    C138    C    0.19880   0.44629   0.07121   1.000
    C139    C    0.69880   0.44629   0.07121   1.000
    C140    C    0.25313   0.17223   0.07710   1.000
    C141    C    0.75313   0.17223   0.07710   1.000
    C142    C    0.30434   0.07986   0.17368   1.000
    C143    C    0.80435   0.07986   0.17368   1.000
    C144    C    0.25848   0.10643   0.24924   1.000
    C145    C    0.75849   0.10643   0.24924   1.000
    C146    C    0.20857   0.17136   0.23557   1.000
    C147    C    0.70857   0.17136   0.23557   1.000
    C148    C    0.26030   0.06502   0.33999   1.000
    C149    C    0.76030   0.06502   0.33999   1.000
    C150    C    0.20539   0.20605   0.14885   1.000
    C151    C    0.70539   0.20605   0.14885   1.000
    C152    C    0.00741   0.04213   0.79536   1.000
    C153    C    0.50742   0.04213   0.79536   1.000
    C154    C    0.43194   0.03800   0.69629   1.000
    C155    C    0.93194   0.03800   0.69629   1.000
    C156    C    0.24257   0.79524   0.04210   1.000
    C157    C    0.74257   0.79524   0.04210   1.000
    C158    C    0.31805   0.69617   0.03796   1.000
    C159    C    0.81805   0.69617   0.03796   1.000
    C160    C    0.49259   0.95787   0.20460   1.000
    C161    C    0.99259   0.95787   0.20460   1.000
    C162    C    0.06806   0.96199   0.30372   1.000
    C163    C    0.56806   0.96199   0.30372   1.000
    C164    C    0.25744   0.20476   0.95786   1.000
    C165    C    0.75744   0.20476   0.95786   1.000
    C166    C    0.18196   0.30382   0.96205   1.000
    C167    C    0.68196   0.30382   0.96205   1.000
    C168    C    0.05175   0.91157   0.88847   1.000
    C169    C    0.55175   0.91157   0.88847   1.000
    C170    C    0.40265   0.90157   0.47336   1.000
    C171    C    0.90266   0.90157   0.47336   1.000
    C172    C    0.19824   0.88847   0.91170   1.000
    C173    C    0.69825   0.88847   0.91170   1.000
    C174    C    0.34734   0.47332   0.90155   1.000
    C175    C    0.84735   0.47332   0.90155   1.000
    C176    C    0.44825   0.08843   0.11150   1.000
    C177    C    0.94826   0.08843   0.11150   1.000
    C178    C    0.09735   0.09843   0.52660   1.000
    C179    C    0.59735   0.09843   0.52660   1.000
    C180    C    0.30176   0.11152   0.08831   1.000
    C181    C    0.80176   0.11153   0.08831   1.000
    C182    C    0.15266   0.52668   0.09840   1.000
    C183    C    0.65266   0.52668   0.09846   1.000
    C184    C    0.05996   0.63304   0.97241   1.000
    C185    C    0.55996   0.63305   0.97240   1.000
    C186    C    0.46077   0.61729   0.92907   1.000
    C187    C    0.96077   0.61729   0.92907   1.000
    C188    C    0.02815   0.63274   0.18066   1.000
    C189    C    0.52815   0.63274   0.18066   1.000
    C190    C    0.42840   0.62091   0.14512   1.000
    C191    C    0.92840   0.62092   0.14512   1.000
    C192    C    0.19004   0.97251   0.63317   1.000
    C193    C    0.69004   0.97252   0.63317   1.000
    C194    C    0.28922   0.92913   0.61736   1.000
    C195    C    0.78922   0.92913   0.61736   1.000
    C196    C    0.22186   0.18067   0.63274   1.000
    C197    C    0.72186   0.18067   0.63274   1.000
    C198    C    0.32161   0.14511   0.62089   1.000
    C199    C    0.82162   0.14511   0.62089   1.000
    C200    C    0.44005   0.36695   0.02759   1.000
    C201    C    0.94005   0.36695   0.02760   1.000
    C202    C    0.03923   0.38271   0.07094   1.000
    C203    C    0.53924   0.38271   0.07094   1.000
    C204    C    0.47185   0.36726   0.81935   1.000
    C205    C    0.97185   0.36726   0.81935   1.000
    C206    C    0.07160   0.37908   0.85489   1.000
    C207    C    0.57160   0.37908   0.85489   1.000
    C208    C    0.30997   0.02748   0.36683   1.000
    C209    C    0.80997   0.02748   0.36683   1.000
    C210    C    0.21078   0.07087   0.38265   1.000
    C211    C    0.71078   0.07087   0.38265   1.000
    C212    C    0.27814   0.81933   0.36727   1.000
    C213    C    0.77814   0.81933   0.36727   1.000
    C214    C    0.17839   0.85489   0.37911   1.000
    C215    C    0.67839   0.85489   0.37910   1.000
    O216    O    0.05208   0.44377   0.04863   1.000
    O217    O    0.10879   0.51576   0.06236   1.000
    O218    O    0.04654   0.56879   0.10349   1.000
    O219    O    0.06826   0.44196   0.94061   1.000
    O220    O    0.06244   0.56894   0.99937   1.000
    O221    O    0.55208   0.44377   0.04863   1.000
    O222    O    0.60879   0.51576   0.06239   1.000
    O223    O    0.54654   0.56879   0.10349   1.000
    O224    O    0.56826   0.44196   0.94061   1.000
    O225    O    0.56244   0.56894   0.99936   1.000
    O226    O    0.46488   0.35352   0.04634   1.000
    O227    O    0.43756   0.43105   0.00063   1.000
    O228    O    0.96488   0.35352   0.04635   1.000
    O229    O    0.93757   0.43105   0.00064   1.000
    O230    O    0.42554   0.17765   0.05546   1.000
    O231    O    0.92554   0.17765   0.05548   1.000
    O232    O    0.28031   0.74571   0.04003   1.000
    O233    O    0.30962   0.62494   0.98338   1.000
    O234    O    0.78031   0.74571   0.04003   1.000
    O235    O    0.80963   0.62494   0.98338   1.000
    O236    O    0.24472   0.81150   0.98250   1.000
    O237    O    0.74472   0.81150   0.98250   1.000
    O238    O    0.01448   0.36140   0.06802   1.000
    O239    O    0.99062   0.29471   0.08580   1.000
    O240    O    0.51447   0.36140   0.06802   1.000
    O241    O    0.49062   0.29471   0.08580   1.000
    O242    O    0.67573   0.48649   0.08483   1.000
    O243    O    0.72704   0.46035   0.09830   1.000
    O244    O    0.69038   0.37506   0.01663   1.000
    O245    O    0.17573   0.48649   0.08480   1.000
    O246    O    0.22704   0.46035   0.09833   1.000
    O247    O    0.19038   0.37506   0.01663   1.000
    O248    O    0.27744   0.14188   0.08270   1.000
    O249    O    0.22926   0.18914   0.11297   1.000
    O250    O    0.25528   0.18849   0.01748   1.000
    O251    O    0.77745   0.14188   0.08270   1.000
    O252    O    0.72926   0.18914   0.11297   1.000
    O253    O    0.75529   0.18849   0.01748   1.000
    O254    O    0.46860   0.21158   0.09321   1.000
    O255    O    0.44696   0.13113   0.09571   1.000
    O256    O    0.96860   0.21157   0.09321   1.000
    O257    O    0.94696   0.13112   0.09571   1.000
    O258    O    0.80305   0.09569   0.13099   1.000
    O259    O    0.30305   0.09569   0.13099   1.000
    O260    O    0.15728   0.58132   0.14075   1.000
    O261    O    0.65729   0.58132   0.14078   1.000
    O262    O    0.27342   0.44141   0.11260   1.000
    O263    O    0.77342   0.44141   0.11257   1.000
    O264    O    0.51649   0.24246   0.13893   1.000
    O265    O    0.01649   0.24246   0.13893   1.000
    O266    O    0.97257   0.08280   0.14185   1.000
    O267    O    0.47257   0.08280   0.14185   1.000
    O268    O    0.75973   0.53065   0.16792   1.000
    O269    O    0.25973   0.53065   0.16794   1.000
    O270    O    0.68626   0.23092   0.14214   1.000
    O271    O    0.18626   0.23092   0.14214   1.000
    O272    O    0.45163   0.64192   0.17686   1.000
    O273    O    0.43174   0.55804   0.05940   1.000
    O274    O    0.95163   0.64192   0.17686   1.000
    O275    O    0.93175   0.55804   0.05940   1.000
    O276    O    0.20698   0.18871   0.19221   1.000
    O277    O    0.70698   0.18870   0.19221   1.000
    O278    O    0.05934   0.26488   0.18253   1.000
    O279    O    0.04304   0.19223   0.18870   1.000
    O280    O    0.55934   0.26489   0.18253   1.000
    O281    O    0.54304   0.19224   0.18870   1.000
    O282    O    0.49474   0.01752   0.18840   1.000
    O283    O    0.52076   0.11302   0.18912   1.000
    O284    O    0.99474   0.01752   0.18840   1.000
    O285    O    0.02076   0.11302   0.18912   1.000
    O286    O    0.82447   0.05540   0.17748   1.000
    O287    O    0.78142   0.09315   0.21146   1.000
    O288    O    0.32447   0.05539   0.17747   1.000
    O289    O    0.28141   0.09315   0.21146   1.000
    O290    O    0.50151   0.64783   0.19463   1.000
    O291    O    0.00151   0.64783   0.19463   1.000
    O292    O    0.64278   0.66666   0.19325   1.000
    O293    O    0.68920   0.65288   0.21277   1.000
    O294    O    0.14278   0.66666   0.19325   1.000
    O295    O    0.18920   0.65288   0.21277   1.000
    O296    O    0.53033   0.95993   0.25416   1.000
    O297    O    0.03033   0.95993   0.25416   1.000
    O298    O    0.56377   0.14213   0.23087   1.000
    O299    O    0.06377   0.14213   0.23052   1.000
    O300    O    0.47068   0.71025   0.26940   1.000
    O301    O    0.97068   0.71025   0.26941   1.000
    O302    O    0.24034   0.62835   0.22644   1.000
    O303    O    0.28605   0.59937   0.23154   1.000
    O304    O    0.74035   0.62835   0.22644   1.000
    O305    O    0.78605   0.59937   0.23154   1.000
    O306    O    0.73353   0.13889   0.24240   1.000
    O307    O    0.69069   0.18252   0.26488   1.000
    O308    O    0.23353   0.13890   0.24240   1.000
    O309    O    0.19069   0.18252   0.26488   1.000
    O310    O    0.72067   0.73057   0.28977   1.000
    O311    O    0.22067   0.73057   0.28977   1.000
    O312    O    0.25939   0.08573   0.29461   1.000
    O313    O    0.75939   0.08573   0.29461   1.000
    O314    O    0.39278   0.80673   0.33336   1.000
    O315    O    0.89278   0.80673   0.33336   1.000
    O316    O    0.05963   0.01658   0.37498   1.000
    O317    O    0.55964   0.01658   0.37498   1.000
    O318    O    0.43921   0.78725   0.34713   1.000
    O319    O    0.49035   0.77361   0.37166   1.000
    O320    O    0.93921   0.78725   0.34714   1.000
    O321    O    0.99035   0.77361   0.37167   1.000
    O322    O    0.25149   0.80534   0.35218   1.000
    O323    O    0.20162   0.82312   0.35810   1.000
    O324    O    0.75150   0.80534   0.35218   1.000
    O325    O    0.70162   0.82312   0.35809   1.000
    O326    O    0.28513   0.04625   0.35341   1.000
    O327    O    0.23554   0.06795   0.36132   1.000
    O328    O    0.78513   0.04625   0.35341   1.000
    O329    O    0.73554   0.06794   0.36132   1.000
    O330    O    0.90729   0.85924   0.41871   1.000
    O331    O    0.40728   0.85924   0.41871   1.000
    O332    O    0.81244   0.00057   0.43096   1.000
    O333    O    0.31244   0.00057   0.43096   1.000
    O334    O    0.79653   0.89649   0.43118   1.000
    O335    O    0.29653   0.89649   0.43118   1.000
    O336    O    0.68174   0.94061   0.44197   1.000
    O337    O    0.18174   0.94062   0.44198   1.000
    O338    O    0.19793   0.04860   0.44375   1.000
    O339    O    0.69793   0.04860   0.44375   1.000
    O340    O    0.53606   0.76854   0.40065   1.000
    O341    O    0.03606   0.76853   0.40065   1.000
    O342    O    0.97659   0.11253   0.44136   1.000
    O343    O    0.47659   0.11253   0.44136   1.000
    O344    O    0.50974   0.83211   0.46939   1.000
    O345    O    0.00973   0.83211   0.46939   1.000
    O346    O    0.52297   0.09829   0.46029   1.000
    O347    O    0.57428   0.08480   0.48642   1.000
    O348    O    0.02297   0.09828   0.46029   1.000
    O349    O    0.07428   0.08480   0.48642   1.000
    O350    O    0.85879   0.93761   0.48423   1.000
    O351    O    0.92573   0.91520   0.51356   1.000
    O352    O    0.35878   0.93761   0.48423   1.000
    O353    O    0.42573   0.91520   0.51356   1.000
    O354    O    0.49027   0.16789   0.53062   1.000
    O355    O    0.99027   0.16789   0.53062   1.000
    O356    O    0.80207   0.95139   0.55623   1.000
    O357    O    0.81827   0.05938   0.55799   1.000
    O358    O    0.30207   0.95139   0.55623   1.000
    O359    O    0.31826   0.05938   0.55799   1.000
    O360    O    0.14122   0.06238   0.51572   1.000
    O361    O    0.20347   0.10350   0.56879   1.000
    O362    O    0.18756   0.99943   0.56901   1.000
    O363    O    0.64122   0.06238   0.51572   1.000
    O364    O    0.70348   0.10350   0.56879   1.000
    O365    O    0.68756   0.99943   0.56901   1.000
    O366    O    0.97703   0.90172   0.53971   1.000
    O367    O    0.02341   0.88747   0.55865   1.000
    O368    O    0.47703   0.90171   0.53971   1.000
    O369    O    0.52341   0.88747   0.55865   1.000
    O370    O    0.59272   0.14076   0.58127   1.000
    O371    O    0.09272   0.14076   0.58127   1.000
    O372    O    0.44037   0.98342   0.62503   1.000
    O373    O    0.94037   0.98342   0.62503   1.000
    O374    O    0.96395   0.23147   0.59935   1.000
    O375    O    0.00965   0.22639   0.62833   1.000
    O376    O    0.46395   0.23146   0.59935   1.000
    O377    O    0.50965   0.22639   0.62833   1.000
    O378    O    0.76447   0.93205   0.63869   1.000
    O379    O    0.26446   0.93205   0.63869   1.000
    O380    O    0.29839   0.17688   0.64190   1.000
    O381    O    0.79839   0.17688   0.64190   1.000
    O382    O    0.74851   0.19466   0.64783   1.000
    O383    O    0.24851   0.19466   0.64783   1.000
    O384    O    0.71487   0.95375   0.64659   1.000
    O385    O    0.21487   0.95375   0.64659   1.000
    O386    O    0.06080   0.21275   0.65286   1.000
    O387    O    0.10722   0.19326   0.66665   1.000
    O388    O    0.56080   0.21275   0.65286   1.000
    O389    O    0.60722   0.19326   0.66665   1.000
    O390    O    0.24061   0.91427   0.70539   1.000
    O391    O    0.74061   0.91427   0.70539   1.000
    O392    O    0.77933   0.26943   0.71021   1.000
    O393    O    0.27933   0.26943   0.71024   1.000
    O394    O    0.52932   0.28975   0.73056   1.000
    O395    O    0.02932   0.28974   0.73056   1.000
    O396    O    0.96968   0.04007   0.74582   1.000
    O397    O    0.46968   0.04007   0.74582   1.000
    O398    O    0.30932   0.81749   0.73513   1.000
    O399    O    0.80932   0.81749   0.73513   1.000
    O400    O    0.93623   0.85786   0.76913   1.000
    O401    O    0.43623   0.85786   0.76913   1.000
    O402    O    0.71396   0.40063   0.76843   1.000
    O403    O    0.21395   0.40063   0.76843   1.000
    O404    O    0.26648   0.86111   0.75760   1.000
    O405    O    0.21859   0.90685   0.78855   1.000
    O406    O    0.76648   0.86111   0.75760   1.000
    O407    O    0.71859   0.90685   0.78855   1.000
    O408    O    0.75966   0.37165   0.77353   1.000
    O409    O    0.81080   0.34712   0.78720   1.000
    O410    O    0.25966   0.37165   0.77356   1.000
    O411    O    0.31080   0.34712   0.78723   1.000
    O412    O    0.29302   0.81130   0.80780   1.000
    O413    O    0.79302   0.81130   0.80780   1.000
    O414    O    0.74027   0.46935   0.83206   1.000
    O415    O    0.24027   0.46935   0.83206   1.000
    O416    O    0.49850   0.35217   0.80534   1.000
    O417    O    0.54838   0.35808   0.82311   1.000
    O418    O    0.99850   0.35217   0.80534   1.000
    O419    O    0.04837   0.35808   0.82311   1.000
    O420    O    0.47925   0.88697   0.81088   1.000
    O421    O    0.45696   0.80776   0.81128   1.000
    O422    O    0.97925   0.88697   0.81088   1.000
    O423    O    0.95697   0.80776   0.81130   1.000
    O424    O    0.50527   0.98248   0.81158   1.000
    O425    O    0.00526   0.98248   0.81158   1.000
    O426    O    0.85723   0.33334   0.80674   1.000
    O427    O    0.35723   0.33334   0.80674   1.000
    O428    O    0.44067   0.73511   0.81745   1.000
    O429    O    0.94067   0.73511   0.81747   1.000
    O430    O    0.84272   0.41868   0.85923   1.000
    O431    O    0.34272   0.41868   0.85923   1.000
    O432    O    0.67554   0.94460   0.82253   1.000
    O433    O    0.17553   0.94460   0.82253   1.000
    O434    O    0.95347   0.43121   0.89651   1.000
    O435    O    0.45347   0.43121   0.89651   1.000
    O436    O    0.69695   0.90430   0.86901   1.000
    O437    O    0.19695   0.90430   0.86901   1.000
    O438    O    0.52743   0.91720   0.85813   1.000
    O439    O    0.02743   0.91720   0.85813   1.000
    O440    O    0.48351   0.75753   0.86105   1.000
    O441    O    0.98351   0.75754   0.86107   1.000
    O442    O    0.31375   0.76909   0.85786   1.000
    O443    O    0.27074   0.81086   0.88703   1.000
    O444    O    0.81375   0.76909   0.85786   1.000
    O445    O    0.77074   0.81086   0.88703   1.000
    O446    O    0.22659   0.55859   0.88740   1.000
    O447    O    0.27297   0.53965   0.90167   1.000
    O448    O    0.72659   0.55859   0.88740   1.000
    O449    O    0.77297   0.53965   0.90167   1.000
    O450    O    0.55304   0.86887   0.90427   1.000
    O451    O    0.05304   0.86887   0.90427   1.000
    O452    O    0.53141   0.78842   0.90679   1.000
    O453    O    0.50938   0.70528   0.91419   1.000
    O454    O    0.03141   0.78842   0.90679   1.000
    O455    O    0.00938   0.70529   0.91419   1.000
    O456    O    0.82428   0.51351   0.91517   1.000
    O457    O    0.89122   0.48424   0.93761   1.000
    O458    O    0.32427   0.51351   0.91517   1.000
    O459    O    0.39121   0.48424   0.93761   1.000
    O460    O    0.72256   0.85812   0.91730   1.000
    O461    O    0.22256   0.85812   0.91730   1.000
    O462    O    0.57447   0.82235   0.94453   1.000
    O463    O    0.07446   0.82235   0.94449   1.000
    O464    O    0.98553   0.63860   0.93197   1.000
    O465    O    0.94793   0.55622   0.95137   1.000
    O466    O    0.48553   0.63860   0.93197   1.000
    O467    O    0.44793   0.55622   0.95137   1.000
    O468    O    0.03512   0.64648   0.95364   1.000
    O469    O    0.53512   0.64648   0.95364   1.000
    O470    O    0.71970   0.25429   0.95995   1.000
    O471    O    0.21970   0.25429   0.95995   1.000
    O472    O    0.50000   0.50000   0.00000   1.000
    O473    O    0.00000   0.50000   0.00000   1.000
    O474    O    0.25000   1.00000   0.49997   1.000
    O475    O    0.75000   1.00000   0.49997   1.000
loop_
    _geom_bond_atom_site_label_1
    _geom_bond_atom_site_label_2
    _geom_bond_distance
    _geom_bond_site_symmetry_2
    _ccdc_geom_bond_type
    C4     O216      1.03184      .   S
    C202   O216      1.03184      .   S
    C4     O217      1.05456      .   S
    C182   O217      1.05456      .   S
    C4     O218      1.05440      .   S
    C188   O218      1.05440      .   S
    C4     O219      1.03748  1_554   S
    C206   O219      1.03748      .   S
    C4     O220      1.03769  1_554   S
    C184   O220      1.03769      .   S
    C5     O221      1.03186      .   S
    C203   O221      1.03186      .   S
    C5     O222      1.05468      .   S
    C183   O222      1.05468      .   S
    C5     O223      1.05439      .   S
    C189   O223      1.05439      .   S
    C5     O224      1.03748  1_554   S
    C207   O224      1.03748      .   S
    C5     O225      1.03775  1_554   S
    C185   O225      1.03775      .   S
    C200   O226      0.63691      .   S
    C124   O226      0.63691      .   S
    C200   O227      1.03766      .   S
    C0     O227      1.03766  1_556   S
    C201   O228      0.63689      .   S
    C125   O228      0.63689      .   S
    C201   O229      1.03769      .   S
    C1     O229      1.03769  1_556   S
    C38    O230      0.54538      .   S
    C118   O230      0.54538      .   S
    C39    O231      0.54524      .   S
    C119   O231      0.54524      .   S
    C158   O232      1.01997      .   S
    C156   O232      1.01997      .   S
    C158   O233      0.89260  1_554   S
    C90    O233      0.89260      .   S
    C159   O234      1.01998      .   S
    C157   O234      1.01998      .   S
    C159   O235      0.89261  1_554   S
    C91    O235      0.89261      .   S
    C156   O236      0.89734  1_554   S
    C92    O236      0.89734      .   S
    C157   O237      0.89734  1_554   S
    C93    O237      0.89734      .   S
    C125   O238      0.63794  1_655   S
    C202   O238      0.63794      .   S
    C125   O239      0.75064      .   S
    C121   O239      0.75064      .   S
    C124   O240      0.63798      .   S
    C203   O240      0.63798      .   S
    C124   O241      0.75062      .   S
    C120   O241      0.75062      .   S
    C139   O242      0.67916      .   S
    C183   O242      0.67916      .   S
    C139   O243      0.69949      .   S
    C137   O243      0.69949      .   S
    C139   O244      0.89261      .   S
    C167   O244      0.89261  1_556   S
    C138   O245      0.67917      .   S
    C182   O245      0.67917      .   S
    C138   O246      0.69959      .   S
    C136   O246      0.69959      .   S
    C138   O247      0.89261      .   S
    C166   O247      0.89261  1_556   S
    C140   O248      0.66851      .   S
    C180   O248      0.66851      .   S
    C140   O249      0.69782      .   S
    C150   O249      0.69782      .   S
    C140   O250      0.89765      .   S
    C164   O250      0.89765  1_556   S
    C141   O251      0.66851      .   S
    C181   O251      0.66851      .   S
    C141   O252      0.69784      .   S
    C151   O252      0.69784      .   S
    C141   O253      0.89765      .   S
    C165   O253      0.89765  1_556   S
    C118   O254      0.70100      .   S
    C120   O254      0.70100      .   S
    C118   O255      0.67202      .   S
    C176   O255      0.67202      .   S
    C119   O256      0.70099      .   S
    C121   O256      0.70099      .   S
    C119   O257      0.67202      .   S
    C177   O257      0.67202      .   S
    C181   O258      0.67218      .   S
    C143   O258      0.67218      .   S
    C180   O259      0.67218      .   S
    C142   O259      0.67218      .   S
    C182   O260      0.67803      .   S
    C132   O260      0.67803      .   S
    C183   O261      0.67791      .   S
    C133   O261      0.67791      .   S
    C48    O262      0.54428      .   S
    C136   O262      0.54428      .   S
    C49    O263      0.54427      .   S
    C137   O263      0.54427      .   S
    C120   O264      0.70058      .   S
    C123   O264      0.70058      .   S
    C121   O265      0.70050  1_655   S
    C122   O265      0.70050      .   S
    C177   O266      0.66865      .   S
    C117   O266      0.66865      .   S
    C176   O267      0.66866      .   S
    C116   O267      0.66866      .   S
    C137   O268      0.69260      .   S
    C135   O268      0.69260      .   S
    C136   O269      0.69250      .   S
    C134   O269      0.69250      .   S
    C55    O270      0.54364      .   S
    C151   O270      0.54364      .   S
    C54    O271      0.54365      .   S
    C150   O271      0.54365      .   S
    C190   O272      0.63677      .   S
    C56    O272      0.63677      .   S
    C190   O273      1.03748      .   S
    C0     O273      1.03748  1_556   S
    C191   O274      0.63677      .   S
    C57    O274      0.63677      .   S
    C191   O275      1.03748      .   S
    C1     O275      1.03748  1_556   S
    C150   O276      0.69382      .   S
    C146   O276      0.69382      .   S
    C151   O277      0.69382      .   S
    C147   O277      0.69382      .   S
    C122   O278      0.54404      .   S
    C40    O278      0.54404      .   S
    C122   O279      0.69381      .   S
    C126   O279      0.69381      .   S
    C123   O280      0.54403      .   S
    C41    O280      0.54403      .   S
    C123   O281      0.69380      .   S
    C127   O281      0.69380      .   S
    C116   O282      0.89765      .   S
    C160   O282      0.89765  1_565   S
    C116   O283      0.69783      .   S
    C127   O283      0.69783      .   S
    C117   O284      0.89764      .   S
    C161   O284      0.89764  1_565   S
    C117   O285      0.69779  1_655   S
    C126   O285      0.69779      .   S
    C143   O286      0.54527      .   S
    C51    O286      0.54527      .   S
    C143   O287      0.70101      .   S
    C145   O287      0.70101      .   S
    C142   O288      0.54525      .   S
    C50    O288      0.54525      .   S
    C142   O289      0.70099      .   S
    C144   O289      0.70099      .   S
    C189   O290      0.63431      .   S
    C56    O290      0.63431      .   S
    C188   O291      0.63426      .   S
    C57    O291      0.63426  1_655   S
    C133   O292      0.54416      .   S
    C45    O292      0.54416      .   S
    C133   O293      0.69587      .   S
    C131   O293      0.69587      .   S
    C132   O294      0.54415      .   S
    C44    O294      0.54415      .   S
    C132   O295      0.69587      .   S
    C130   O295      0.69587      .   S
    C160   O296      1.02009      .   S
    C163   O296      1.02009      .   S
    C161   O297      1.02005  1_655   S
    C162   O297      1.02005      .   S
    C127   O298      0.54365      .   S
    C43    O298      0.54365      .   S
    C126   O299      0.54097      .   S
    C42    O299      0.54097      .   S
    C56    O300      0.75168      .   S
    C58    O300      0.75168      .   S
    C57    O301      0.75181      .   S
    C59    O301      0.75181      .   S
    C134   O302      0.70103      .   S
    C130   O302      0.70103      .   S
    C134   O303      0.54454      .   S
    C46    O303      0.54454      .   S
    C135   O304      0.70102      .   S
    C131   O304      0.70102      .   S
    C135   O305      0.54454      .   S
    C47    O305      0.54454      .   S
    C147   O306      0.70056      .   S
    C145   O306      0.70056      .   S
    C147   O307      0.54404      .   S
    C53    O307      0.54404      .   S
    C146   O308      0.70056      .   S
    C144   O308      0.70056      .   S
    C146   O309      0.54404      .   S
    C52    O309      0.54404      .   S
    C131   O310      0.75152      .   S
    C129   O310      0.75152      .   S
    C130   O311      0.75153      .   S
    C128   O311      0.75153      .   S
    C144   O312      0.75051      .   S
    C148   O312      0.75051      .   S
    C145   O313      0.75051      .   S
    C149   O313      0.75051      .   S
    C8     O314      0.54413      .   S
    C60    O314      0.54413      .   S
    C9     O315      0.54414      .   S
    C61    O315      0.54414      .   S
    C162   O316      0.89270  1_565   S
    C114   O316      0.89270      .   S
    C163   O317      0.89270  1_565   S
    C115   O317      0.89270      .   S
    C58    O318      0.69588      .   S
    C60    O318      0.69588      .   S
    C58    O319      0.70112      .   S
    C63    O319      0.70112      .   S
    C59    O320      0.69585      .   S
    C61    O320      0.69585      .   S
    C59    O321      0.70097      .   S
    C62    O321      0.70097  1_455   S
    C128   O322      0.63440      .   S
    C212   O322      0.63440      .   S
    C128   O323      0.63695      .   S
    C214   O323      0.63695      .   S
    C129   O324      0.63441      .   S
    C213   O324      0.63441      .   S
    C129   O325      0.63692      .   S
    C215   O325      0.63692      .   S
    C148   O326      0.63695      .   S
    C208   O326      0.63695      .   S
    C148   O327      0.63802      .   S
    C210   O327      0.63802      .   S
    C149   O328      0.63694      .   S
    C209   O328      0.63694      .   S
    C149   O329      0.63803      .   S
    C211   O329      0.63803      .   S
    C61    O330      0.67792      .   S
    C171   O330      0.67792      .   S
    C60    O331      0.67792      .   S
    C170   O331      0.67792      .   S
    C209   O332      1.03748      .   S
    C3     O332      1.03748  1_565   S
    C208   O333      1.03748      .   S
    C2     O333      1.03748  1_565   S
    C213   O334      1.05448      .   S
    C3     O334      1.05448      .   S
    C212   O335      1.05447      .   S
    C2     O335      1.05447      .   S
    C215   O336      1.03771      .   S
    C7     O336      1.03771  1_545   S
    C214   O337      1.03769      .   S
    C6     O337      1.03769  1_545   S
    C210   O338      1.03176      .   S
    C6     O338      1.03176      .   S
    C211   O339      1.03176      .   S
    C7     O339      1.03176      .   S
    C11    O340      0.54455      .   S
    C63    O340      0.54455      .   S
    C10    O341      0.54455      .   S
    C62    O341      0.54455      .   S
    C37    O342      0.54427      .   S
    C113   O342      0.54427      .   S
    C36    O343      0.54427      .   S
    C112   O343      0.54427      .   S
    C63    O344      0.69249      .   S
    C65    O344      0.69249      .   S
    C62    O345      0.69249      .   S
    C64    O345      0.69249      .   S
    C115   O346      0.69961      .   S
    C112   O346      0.69961      .   S
    C115   O347      0.67899      .   S
    C179   O347      0.67899      .   S
    C114   O348      0.69957      .   S
    C113   O348      0.69957  1_655   S
    C114   O349      0.67898      .   S
    C178   O349      0.67898      .   S
    C171   O350      1.05458      .   S
    C3     O350      1.05458      .   S
    C171   O351      0.67918      .   S
    C67    O351      0.67918      .   S
    C170   O352      1.05458      .   S
    C2     O352      1.05458      .   S
    C170   O353      0.67918      .   S
    C66    O353      0.67918      .   S
    C112   O354      0.69249      .   S
    C110   O354      0.69249      .   S
    C113   O355      0.69249      .   S
    C111   O355      0.69249      .   S
    C3     O356      1.03211      .   S
    C195   O356      1.03211      .   S
    C3     O357      1.03779  1_565   S
    C199   O357      1.03779      .   S
    C2     O358      1.03210      .   S
    C194   O358      1.03210      .   S
    C2     O359      1.03780  1_565   S
    C198   O359      1.03780      .   S
    C6     O360      1.05458      .   S
    C178   O360      1.05458      .   S
    C6     O361      1.05460      .   S
    C196   O361      1.05460      .   S
    C6     O362      1.03780  1_545   S
    C192   O362      1.03780      .   S
    C7     O363      1.05457      .   S
    C179   O363      1.05457      .   S
    C7     O364      1.05461      .   S
    C197   O364      1.05461      .   S
    C7     O365      1.03779  1_545   S
    C193   O365      1.03779      .   S
    C64    O366      0.69956  1_455   S
    C67    O366      0.69956      .   S
    C64    O367      0.54427      .   S
    C12    O367      0.54427      .   S
    C65    O368      0.69961      .   S
    C66    O368      0.69961      .   S
    C65    O369      0.54427      .   S
    C13    O369      0.54427      .   S
    C179   O370      0.67814      .   S
    C109   O370      0.67814      .   S
    C178   O371      0.67814      .   S
    C108   O371      0.67814      .   S
    C66    O372      0.89270      .   S
    C154   O372      0.89270  1_545   S
    C67    O373      0.89270      .   S
    C155   O373      0.89270  1_545   S
    C111   O374      0.54455      .   S
    C35    O374      0.54455      .   S
    C111   O375      0.70097  1_655   S
    C106   O375      0.70097      .   S
    C110   O376      0.54454      .   S
    C34    O376      0.54454      .   S
    C110   O377      0.70102      .   S
    C107   O377      0.70102      .   S
    C195   O378      0.63802      .   S
    C101   O378      0.63802      .   S
    C194   O379      0.63803      .   S
    C100   O379      0.63803      .   S
    C198   O380      0.63695      .   S
    C80    O380      0.63695      .   S
    C199   O381      0.63695      .   S
    C81    O381      0.63695      .   S
    C197   O382      0.63440      .   S
    C81    O382      0.63440      .   S
    C196   O383      0.63441      .   S
    C80    O383      0.63441      .   S
    C193   O384      0.63697      .   S
    C101   O384      0.63697      .   S
    C192   O385      0.63696      .   S
    C100   O385      0.63696      .   S
    C108   O386      0.69586      .   S
    C106   O386      0.69586      .   S
    C108   O387      0.54413      .   S
    C32    O387      0.54413      .   S
    C109   O388      0.69585      .   S
    C107   O388      0.69585      .   S
    C109   O389      0.54414      .   S
    C33    O389      0.54414      .   S
    C100   O390      0.75050      .   S
    C96    O390      0.75050      .   S
    C101   O391      0.75050      .   S
    C97    O391      0.75050      .   S
    C81    O392      0.75140      .   S
    C83    O392      0.75140      .   S
    C80    O393      0.75152      .   S
    C82    O393      0.75152      .   S
    C107   O394      0.75150      .   S
    C105   O394      0.75150      .   S
    C106   O395      0.75149      .   S
    C104   O395      0.75149      .   S
    C155   O396      1.01987      .   S
    C152   O396      1.01987  1_455   S
    C154   O397      1.01992      .   S
    C153   O397      1.01992      .   S
    C28    O398      0.54404      .   S
    C98    O398      0.54404      .   S
    C29    O399      0.54404      .   S
    C99    O399      0.54404      .   S
    C19    O400      0.54366      .   S
    C79    O400      0.54366      .   S
    C18    O401      0.54364      .   S
    C78    O401      0.54364      .   S
    C23    O402      0.54467      .   S
    C87    O402      0.54467      .   S
    C22    O403      0.54467      .   S
    C86    O403      0.54467      .   S
    C96    O404      0.70056      .   S
    C98    O404      0.70056      .   S
    C96    O405      0.70101      .   S
    C94    O405      0.70101      .   S
    C97    O406      0.70056      .   S
    C99    O406      0.70056      .   S
    C97    O407      0.70101      .   S
    C95    O407      0.70101      .   S
    C83    O408      0.70103      .   S
    C87    O408      0.70103      .   S
    C83    O409      0.69600      .   S
    C85    O409      0.69600      .   S
    C82    O410      0.70102      .   S
    C86    O410      0.70102      .   S
    C82    O411      0.69587      .   S
    C84    O411      0.69587      .   S
    C98    O412      0.69382      .   S
    C102   O412      0.69382      .   S
    C99    O413      0.69382      .   S
    C103   O413      0.69382      .   S
    C87    O414      0.69249      .   S
    C89    O414      0.69249      .   S
    C86    O415      0.69249      .   S
    C88    O415      0.69249      .   S
    C105   O416      0.63441      .   S
    C204   O416      0.63441      .   S
    C105   O417      0.63694      .   S
    C207   O417      0.63694      .   S
    C104   O418      0.63436  1_455   S
    C205   O418      0.63436      .   S
    C104   O419      0.63694      .   S
    C206   O419      0.63694      .   S
    C78    O420      0.69782      .   S
    C69    O420      0.69782      .   S
    C78    O421      0.69367      .   S
    C74    O421      0.69367      .   S
    C79    O422      0.69779      .   S
    C68    O422      0.69779  1_455   S
    C79    O423      0.69382      .   S
    C75    O423      0.69382      .   S
    C153   O424      0.89787  1_545   S
    C69    O424      0.89787      .   S
    C152   O425      0.89786  1_545   S
    C68    O425      0.89786      .   S
    C21    O426      0.54415      .   S
    C85    O426      0.54415      .   S
    C20    O427      0.54415      .   S
    C84    O427      0.54415      .   S
    C16    O428      0.54406      .   S
    C74    O428      0.54406      .   S
    C17    O429      0.54403      .   S
    C75    O429      0.54403      .   S
    C85    O430      0.67791      .   S
    C175   O430      0.67791      .   S
    C84    O431      0.67791      .   S
    C174   O431      0.67791      .   S
    C27    O432      0.54526      .   S
    C95    O432      0.54526      .   S
    C26    O433      0.54527      .   S
    C94    O433      0.54527      .   S
    C205   O434      1.05440      .   S
    C1     O434      1.05440      .   S
    C204   O435      1.05440      .   S
    C0     O435      1.05440      .   S
    C95    O436      0.67218      .   S
    C173   O436      0.67218      .   S
    C94    O437      0.67218      .   S
    C172   O437      0.67218      .   S
    C69    O438      0.66850      .   S
    C169   O438      0.66850      .   S
    C68    O439      0.66850      .   S
    C168   O439      0.66850      .   S
    C74    O440      0.70068      .   S
    C73    O440      0.70068      .   S
    C75    O441      0.70052      .   S
    C72    O441      0.70052  1_455   S
    C102   O442      0.54364      .   S
    C30    O442      0.54364      .   S
    C102   O443      0.69784      .   S
    C92    O443      0.69784      .   S
    C103   O444      0.54364      .   S
    C31    O444      0.54364      .   S
    C103   O445      0.69784      .   S
    C93    O445      0.69784      .   S
    C88    O446      0.54427      .   S
    C24    O446      0.54427      .   S
    C88    O447      0.69961      .   S
    C90    O447      0.69961      .   S
    C89    O448      0.54428      .   S
    C25    O448      0.54428      .   S
    C89    O449      0.69960      .   S
    C91    O449      0.69960      .   S
    C169   O450      0.67220      .   S
    C71    O450      0.67220      .   S
    C168   O451      0.67219      .   S
    C70    O451      0.67219      .   S
    C73    O452      0.70099      .   S
    C71    O452      0.70099      .   S
    C73    O453      0.75052      .   S
    C77    O453      0.75052      .   S
    C72    O454      0.70100      .   S
    C70    O454      0.70100      .   S
    C72    O455      0.75050      .   S
    C76    O455      0.75050      .   S
    C175   O456      0.67916      .   S
    C91    O456      0.67916      .   S
    C175   O457      1.05467      .   S
    C1     O457      1.05467      .   S
    C174   O458      0.67916      .   S
    C90    O458      0.67916      .   S
    C174   O459      1.05468      .   S
    C0     O459      1.05468      .   S
    C173   O460      0.66850      .   S
    C93    O460      0.66850      .   S
    C172   O461      0.66851      .   S
    C92    O461      0.66851      .   S
    C71    O462      0.54527      .   S
    C15    O462      0.54527      .   S
    C70    O463      0.54499      .   S
    C14    O463      0.54499      .   S
    C187   O464      0.63798      .   S
    C76    O464      0.63798  1_455   S
    C187   O465      1.03183      .   S
    C1     O465      1.03183      .   S
    C186   O466      0.63802      .   S
    C77    O466      0.63802      .   S
    C186   O467      1.03185      .   S
    C0     O467      1.03185      .   S
    C76    O468      0.63697      .   S
    C184   O468      0.63697      .   S
    C77    O469      0.63693      .   S
    C185   O469      0.63693      .   S
    C165   O470      1.01992      .   S
    C167   O470      1.01992      .   S
    C164   O471      1.01991      .   S
    C166   O471      1.01991      .   S
    C0     O472      1.48275  1_556   S
    C5     O472      1.48275      .   S
    C1     O473      1.48270  1_656   S
    C4     O473      1.48270      .   S
    C2     O474      1.48268      .   S
    C6     O474      1.48268  1_545   S
    C3     O475      1.48269      .   S
    C7     O475      1.48269  1_545   S
