# CIF file generated by openbabel 2.4.90, see http://openbabel.sf.net
data_I
_chemical_name_common ''
_cell_length_a 15.743
_cell_length_b 15.75
_cell_length_c 20.005
_cell_angle_alpha 90.001
_cell_angle_beta 90
_cell_angle_gamma 90.008
_space_group_name_H-M_alt 'P 1'
_space_group_name_Hall 'P 1'
loop_
    _symmetry_equiv_pos_as_xyz
    x,y,z
loop_
    _atom_site_label
    _atom_site_type_symbol
    _atom_site_fract_x
    _atom_site_fract_y
    _atom_site_fract_z
    _atom_site_occupancy
    Lv0     Lv   0.92817   0.56977   0.82284   1.000
    Lv1     Lv   0.92823   0.92710   0.32299   1.000
    Lv2     Lv   0.56999   0.56983   0.32295   1.000
    Lv3     Lv   0.06981   0.42659   0.17703   1.000
    Lv4     Lv   0.07004   0.06988   0.67699   1.000
    Lv5     Lv   0.42821   0.42711   0.67697   1.000
    Lv6     Lv   0.42824   0.06974   0.17711   1.000
    Lv7     Lv   0.56980   0.92659   0.82293   1.000
