# CIF file generated by openbabel 2.4.90, see http://openbabel.sf.net
data_I
_chemical_name_common ''
_cell_length_a 15.743
_cell_length_b 15.75
_cell_length_c 20.005
_cell_angle_alpha 90.001
_cell_angle_beta 90
_cell_angle_gamma 90.008
_space_group_name_H-M_alt 'P 1'
_space_group_name_Hall 'P 1'
loop_
    _symmetry_equiv_pos_as_xyz
    x,y,z
loop_
    _atom_site_label
    _atom_site_type_symbol
    _atom_site_fract_x
    _atom_site_fract_y
    _atom_site_fract_z
    _atom_site_occupancy
    H0      H    0.21014   0.05571   0.05952   1.000
    H1      H    0.35683   0.83496   0.11581   1.000
    H2      H    0.36226   0.55531   0.85034   1.000
    H3      H    0.28892   0.44050   0.06000   1.000
    H4      H    0.14126   0.66081   0.11560   1.000
    H5      H    0.43779   0.63151   0.15034   1.000
    H6      H    0.55612   0.70657   0.93928   1.000
    H7      H    0.33601   0.85520   0.88461   1.000
    H8      H    0.94178   0.79029   0.93883   1.000
    H9      H    0.16175   0.64123   0.88440   1.000
    H10     H    0.63658   0.44165   0.14963   1.000
    H11     H    0.71004   0.55570   0.94043   1.000
    H12     H    0.85682   0.33502   0.88420   1.000
    H13     H    0.56159   0.36600   0.84925   1.000
    H14     H    0.44179   0.29024   0.06113   1.000
    H15     H    0.66178   0.14127   0.11550   1.000
    C16     C    0.23724   0.99287   0.06630   1.000
    C17     C    0.31061   0.87993   0.09655   1.000
    C18     C    0.41268   0.51033   0.86100   1.000
    C19     C    0.26153   0.50321   0.06663   1.000
    C20     C    0.18767   0.61595   0.09653   1.000
    C21     C    0.52890   0.19219   0.10580   1.000
    C22     C    0.54335   0.54283   0.18170   1.000
    C23     C    0.80709   0.46820   0.89491   1.000
    C24     C    0.48509   0.58343   0.13918   1.000
    C25     C    0.49345   0.73423   0.93292   1.000
    C26     C    0.38080   0.80856   0.90350   1.000
    C27     C    0.00443   0.76251   0.93255   1.000
    C28     C    0.11700   0.68794   0.90326   1.000
    C29     C    0.58624   0.48670   0.13882   1.000
    C30     C    0.73716   0.49289   0.93366   1.000
    C31     C    0.81058   0.37998   0.90345   1.000
    C32     C    0.46896   0.80448   0.89450   1.000
    C33     C    0.02889   0.69220   0.89417   1.000
    C34     C    0.19147   0.52778   0.10528   1.000
    C35     C    0.30714   0.96816   0.10507   1.000
    C36     C    0.51409   0.41388   0.86050   1.000
    C37     C    0.50443   0.26248   0.06740   1.000
    C38     C    0.61702   0.18796   0.09671   1.000
    C39     C    0.45574   0.45449   0.81800   1.000
    N40     N    0.20168   0.92435   0.03670   1.000
    N41     N    0.24738   0.85389   0.05566   1.000
    N42     N    0.44290   0.50329   0.92394   1.000
    N43     N    0.29684   0.57176   0.03690   1.000
    N44     N    0.25080   0.64211   0.05560   1.000
    N45     N    0.49286   0.55380   0.07619   1.000
    N46     N    0.42487   0.69911   0.96272   1.000
    N47     N    0.35458   0.74542   0.94436   1.000
    N48     N    0.07302   0.79749   0.96245   1.000
    N49     N    0.14323   0.75103   0.94416   1.000
    N50     N    0.55594   0.49353   0.07595   1.000
    N51     N    0.70160   0.42437   0.96318   1.000
    N52     N    0.74734   0.35392   0.94432   1.000
    N53     N    0.50613   0.44318   0.92357   1.000
    N54     N    0.57300   0.29748   0.03752   1.000
    N55     N    0.64323   0.25105   0.05581   1.000
loop_
    _geom_bond_atom_site_label_1
    _geom_bond_atom_site_label_2
    _geom_bond_distance
    _geom_bond_site_symmetry_2
    _ccdc_geom_bond_type
    N40    N41       1.37597      .   S
    N40    C16       1.35225      .   S
    N43    N44       1.37593      .   S
    N43    C19       1.35210      .   S
    N54    N55       1.37523      .   S
    N54    C37       1.35149      .   S
    N44    C20       1.35192      .   S
    N41    C17       1.35206      .   S
    N55    C38       1.35171      .   S
    H0     C16       1.08639  1_545   S
    H3     C19       1.08604      .   S
    H14    C37       1.08596      .   S
    C16    C35       1.40143      .   S
    C19    C34       1.40142      .   S
    C37    C21       1.40158      .   S
    N50    N45       1.37391      .   S
    N50    C29       1.34943      .   S
    N45    C24       1.34928      .   S
    C20    C34       1.40100      .   S
    C20    H4        1.08565      .   S
    C17    C35       1.40104      .   S
    C17    H1        1.08616      .   S
    C38    C21       1.40075      .   S
    C38    H15       1.08564      .   S
    C29    H10       1.08550      .   S
    C29    C22       1.40485      .   S
    C24    H5        1.08549      .   S
    C24    C22       1.40483      .   S
    C39    C36       1.40574      .   S
    C39    C18       1.40470      .   S
    H13    C36       1.08555      .   S
    H2     C18       1.08518      .   S
    C36    N53       1.34932      .   S
    C18    N42       1.35056      .   S
    H12    C31       1.08621      .   S
    H9     C28       1.08615      .   S
    H7     C26       1.08612      .   S
    C33    C28       1.40075      .   S
    C33    C27       1.40144      .   S
    C32    C26       1.40100      .   S
    C32    C25       1.40138      .   S
    C23    C31       1.40105      .   S
    C23    C30       1.40144      .   S
    C28    N49       1.35172      .   S
    C31    N52       1.35197      .   S
    C26    N47       1.35181      .   S
    N53    N42       1.37381      .   S
    C27    H8        1.08632  1_455   S
    C27    N48       1.35167      .   S
    C25    H6        1.08603      .   S
    C25    N46       1.35171      .   S
    C30    H11       1.08600      .   S
    C30    N51       1.35155      .   S
    N49    N48       1.37528      .   S
    N52    N51       1.37558      .   S
    N47    N46       1.37533      .   S
