# CIF file generated by openbabel 2.4.90, see http://openbabel.sf.net
data_I
_chemical_name_common ''
_cell_length_a 15.743
_cell_length_b 15.75
_cell_length_c 20.005
_cell_angle_alpha 90.001
_cell_angle_beta 90
_cell_angle_gamma 90.008
_space_group_name_H-M_alt 'P 1'
_space_group_name_Hall 'P 1'
loop_
    _symmetry_equiv_pos_as_xyz
    x,y,z
loop_
    _atom_site_label
    _atom_site_type_symbol
    _atom_site_fract_x
    _atom_site_fract_y
    _atom_site_fract_z
    _atom_site_occupancy
    H0      H    0.15393   0.95969   0.73655   1.000
    H1      H    0.34522   0.53794   0.73649   1.000
    H2      H    0.53695   0.15476   0.23733   1.000
    H3      H    0.96030   0.34216   0.23690   1.000
    H4      H    0.84494   0.45889   0.76357   1.000
    H5      H    0.65325   0.03711   0.76339   1.000
    H6      H    0.46072   0.65433   0.26293   1.000
    H7      H    0.03759   0.84247   0.26316   1.000
    H8      H    0.84527   0.03798   0.26347   1.000
    H9      H    0.65390   0.45969   0.26342   1.000
    H10     H    0.46031   0.84216   0.76307   1.000
    H11     H    0.03688   0.65480   0.76262   1.000
    H12     H    0.15323   0.53710   0.23659   1.000
    H13     H    0.34501   0.95884   0.23641   1.000
    H14     H    0.53756   0.34250   0.73679   1.000
    H15     H    0.96077   0.15439   0.73706   1.000
    H16     H    0.09431   0.09444   0.55587   1.000
    H17     H    0.40296   0.40192   0.55600   1.000
    H18     H    0.40386   0.09456   0.05599   1.000
    H19     H    0.09478   0.40157   0.05602   1.000
    H20     H    0.90383   0.59457   0.94390   1.000
    H21     H    0.59474   0.90158   0.94396   1.000
    H22     H    0.59426   0.59439   0.44410   1.000
    H23     H    0.90297   0.90190   0.44395   1.000
    C24     C    0.11685   0.00830   0.71096   1.000
    C25     C    0.13161   0.02217   0.64279   1.000
    C26     C    0.38190   0.48908   0.71087   1.000
    C27     C    0.36648   0.47483   0.64283   1.000
    C28     C    0.48913   0.11707   0.21139   1.000
    C29     C    0.47545   0.13201   0.14323   1.000
    C30     C    0.58511   0.58510   0.39059   1.000
    C31     C    0.94247   0.94128   0.25369   1.000
    C32     C    0.91253   0.91149   0.39050   1.000
    C33     C    0.00849   0.37960   0.21112   1.000
    C34     C    0.02247   0.36453   0.14301   1.000
    C35     C    0.88172   0.50777   0.78909   1.000
    C36     C    0.86684   0.52181   0.85721   1.000
    C37     C    0.61637   0.98836   0.78900   1.000
    C38     C    0.63153   0.97424   0.85709   1.000
    C39     C    0.50882   0.61689   0.28877   1.000
    C40     C    0.52244   0.63174   0.35696   1.000
    C41     C    0.98948   0.88002   0.28892   1.000
    C42     C    0.97531   0.86487   0.35699   1.000
    C43     C    0.88193   0.98908   0.28909   1.000
    C44     C    0.86651   0.97483   0.35713   1.000
    C45     C    0.61680   0.50825   0.28902   1.000
    C46     C    0.63156   0.52212   0.35719   1.000
    C47     C    0.50848   0.87960   0.78885   1.000
    C48     C    0.52244   0.86454   0.85690   1.000
    C49     C    0.98904   0.61710   0.78850   1.000
    C50     C    0.97539   0.63203   0.85670   1.000
    C51     C    0.11637   0.48837   0.21097   1.000
    C52     C    0.13155   0.47424   0.14289   1.000
    C53     C    0.38180   0.00775   0.21088   1.000
    C54     C    0.36690   0.02179   0.14276   1.000
    C55     C    0.48947   0.38005   0.71103   1.000
    C56     C    0.47530   0.36489   0.64296   1.000
    C57     C    0.00888   0.11694   0.71121   1.000
    C58     C    0.02250   0.13179   0.64303   1.000
    C59     C    0.05638   0.05604   0.74645   1.000
    C60     C    0.08516   0.08516   0.60900   1.000
    C61     C    0.44245   0.44129   0.74627   1.000
    C62     C    0.41252   0.41150   0.60945   1.000
    C63     C    0.44198   0.05574   0.24646   1.000
    C64     C    0.41304   0.08514   0.10950   1.000
    C65     C    0.05578   0.44065   0.24630   1.000
    C66     C    0.08532   0.41107   0.10949   1.000
    C67     C    0.94190   0.55577   0.75350   1.000
    C68     C    0.91299   0.58515   0.89047   1.000
    C69     C    0.55578   0.94064   0.75360   1.000
    C70     C    0.58529   0.91108   0.89049   1.000
    C71     C    0.55632   0.55599   0.25353   1.000
loop_
    _geom_bond_atom_site_label_1
    _geom_bond_atom_site_label_2
    _geom_bond_distance
    _geom_bond_site_symmetry_2
    _ccdc_geom_bond_type
    H18    C64       1.09032      .   S
    H19    C66       1.09030      .   S
    C66    C52       1.40208      .   S
    C66    C34       1.40207      .   S
    C64    C54       1.40202      .   S
    C64    C29       1.40194      .   S
    C54    C53       1.40037      .   S
    C52    C51       1.40055      .   S
    C34    C33       1.40044      .   S
    C29    C28       1.40036      .   S
    C53    H13       1.09057  1_545   S
    C53    C63       1.40554      .   S
    C51    H12       1.09023      .   S
    C51    C65       1.40499      .   S
    C33    H3        1.09044  1_455   S
    C33    C65       1.40497      .   S
    C28    H2        1.09016      .   S
    C28    C63       1.40564      .   S
    C71    C39       1.40581      .   S
    C71    C45       1.40572      .   S
    C31    C41       1.40557      .   S
    C31    C43       1.40593      .   S
    H6     C39       1.09019      .   S
    H7     C41       1.09045  1_455   S
    H9     C45       1.09020      .   S
    H8     C43       1.09054  1_545   S
    C39    C40       1.40057      .   S
    C41    C42       1.40040      .   S
    C45    C46       1.40051      .   S
    C43    C44       1.40073      .   S
    C40    C30       1.40196      .   S
    C42    C32       1.40197      .   S
    C44    C32       1.40211      .   S
    C46    C30       1.40196      .   S
    C32    H23       1.09032      .   S
    C30    H22       1.08998      .   S
    H16    C60       1.08251      .   S
    H17    C62       1.09031      .   S
    C60    C25       1.40574      .   S
    C60    C58       1.40578      .   S
    C62    C27       1.40220      .   S
    C62    C56       1.40196      .   S
    C25    C24       1.40053      .   S
    C27    C26       1.40070      .   S
    C56    C55       1.40038      .   S
    C58    C57       1.40035      .   S
    C26    H1        1.09021      .   S
    C26    C61       1.40594      .   S
    C24    H0        1.09048  1_545   S
    C24    C59       1.40567      .   S
    C55    H14       1.09022      .   S
    C55    C61       1.40564      .   S
    C57    H15       1.09046  1_455   S
    C57    C59       1.40587      .   S
    C67    C49       1.40500      .   S
    C67    C35       1.40558      .   S
    C69    C47       1.40569      .   S
    C69    C37       1.40567      .   S
    H11    C49       1.08978  1_455   S
    H10    C47       1.09015      .   S
    H5     C37       1.09048  1_545   S
    H4     C35       1.09015      .   S
    C49    C50       1.40106      .   S
    C47    C48       1.39924      .   S
    C37    C38       1.40068      .   S
    C35    C36       1.40031      .   S
    C50    C68       1.40229      .   S
    C48    C70       1.40269      .   S
    C38    C70       1.40208      .   S
    C36    C68       1.40204      .   S
    C68    H20       1.08870      .   S
    C70    H21       1.09027      .   S
