# CIF file generated by openbabel 2.4.90, see http://openbabel.sf.net
data_I
_chemical_name_common ''
_cell_length_a 15.743
_cell_length_b 15.75
_cell_length_c 20.005
_cell_angle_alpha 90.001
_cell_angle_beta 90
_cell_angle_gamma 90.008
_space_group_name_H-M_alt 'P 1'
_space_group_name_Hall 'P 1'
loop_
    _symmetry_equiv_pos_as_xyz
    x,y,z
loop_
    _atom_site_label
    _atom_site_type_symbol
    _atom_site_fract_x
    _atom_site_fract_y
    _atom_site_fract_z
    _atom_site_occupancy
    H0      H    0.15393   0.95969   0.73655   1.000
    H1      H    0.21014   0.05571   0.05952   1.000
    H2      H    0.35683   0.83496   0.11581   1.000
    H3      H    0.34522   0.53794   0.73649   1.000
    H4      H    0.36226   0.55531   0.85034   1.000
    H5      H    0.28892   0.44050   0.06000   1.000
    H6      H    0.14126   0.66081   0.11560   1.000
    H7      H    0.53695   0.15476   0.23733   1.000
    H8      H    0.96030   0.34216   0.23690   1.000
    H9      H    0.84494   0.45889   0.76357   1.000
    H10     H    0.65325   0.03711   0.76339   1.000
    H11     H    0.46072   0.65433   0.26293   1.000
    H12     H    0.43779   0.63151   0.15034   1.000
    H13     H    0.55612   0.70657   0.93928   1.000
    H14     H    0.33601   0.85520   0.88461   1.000
    H15     H    0.03759   0.84247   0.26316   1.000
    H16     H    0.94178   0.79029   0.93883   1.000
    H17     H    0.16175   0.64123   0.88440   1.000
    H18     H    0.84527   0.03798   0.26347   1.000
    H19     H    0.65390   0.45969   0.26342   1.000
    H20     H    0.63658   0.44165   0.14963   1.000
    H21     H    0.71004   0.55570   0.94043   1.000
    H22     H    0.85682   0.33502   0.88420   1.000
    H23     H    0.46031   0.84216   0.76307   1.000
    H24     H    0.03688   0.65480   0.76262   1.000
    H25     H    0.15323   0.53710   0.23659   1.000
    H26     H    0.34501   0.95884   0.23641   1.000
    H27     H    0.53756   0.34250   0.73679   1.000
    H28     H    0.56159   0.36600   0.84925   1.000
    H29     H    0.44179   0.29024   0.06113   1.000
    H30     H    0.66178   0.14127   0.11550   1.000
    H31     H    0.96077   0.15439   0.73706   1.000
    H32     H    0.09431   0.09444   0.55587   1.000
    H33     H    0.40296   0.40192   0.55600   1.000
    H34     H    0.40386   0.09456   0.05599   1.000
    H35     H    0.09478   0.40157   0.05602   1.000
    H36     H    0.90383   0.59457   0.94390   1.000
    H37     H    0.59474   0.90158   0.94396   1.000
    H38     H    0.59426   0.59439   0.44410   1.000
    H39     H    0.90297   0.90190   0.44395   1.000
    C40     C    0.11685   0.00830   0.71096   1.000
    C41     C    0.13161   0.02217   0.64279   1.000
    C42     C    0.23724   0.99287   0.06630   1.000
    C43     C    0.31061   0.87993   0.09655   1.000
    C44     C    0.38190   0.48908   0.71087   1.000
    C45     C    0.36648   0.47483   0.64283   1.000
    C46     C    0.41268   0.51033   0.86100   1.000
    C47     C    0.26153   0.50321   0.06663   1.000
    C48     C    0.18767   0.61595   0.09653   1.000
    C49     C    0.48913   0.11707   0.21139   1.000
    C50     C    0.47545   0.13201   0.14323   1.000
    C51     C    0.52890   0.19219   0.10580   1.000
    C52     C    0.58511   0.58510   0.39059   1.000
    C53     C    0.54335   0.54283   0.18170   1.000
    C54     C    0.94247   0.94128   0.25369   1.000
    C55     C    0.91253   0.91149   0.39050   1.000
    C56     C    0.00849   0.37960   0.21112   1.000
    C57     C    0.02247   0.36453   0.14301   1.000
    C58     C    0.88172   0.50777   0.78909   1.000
    C59     C    0.86684   0.52181   0.85721   1.000
    C60     C    0.80709   0.46820   0.89491   1.000
    C61     C    0.61637   0.98836   0.78900   1.000
    C62     C    0.63153   0.97424   0.85709   1.000
    C63     C    0.50882   0.61689   0.28877   1.000
    C64     C    0.52244   0.63174   0.35696   1.000
    C65     C    0.48509   0.58343   0.13918   1.000
    C66     C    0.49345   0.73423   0.93292   1.000
    C67     C    0.38080   0.80856   0.90350   1.000
    C68     C    0.98948   0.88002   0.28892   1.000
    C69     C    0.97531   0.86487   0.35699   1.000
    C70     C    0.00443   0.76251   0.93255   1.000
    C71     C    0.11700   0.68794   0.90326   1.000
    C72     C    0.88193   0.98908   0.28909   1.000
    C73     C    0.86651   0.97483   0.35713   1.000
    C74     C    0.61680   0.50825   0.28902   1.000
    C75     C    0.63156   0.52212   0.35719   1.000
    C76     C    0.58624   0.48670   0.13882   1.000
    C77     C    0.73716   0.49289   0.93366   1.000
    C78     C    0.81058   0.37998   0.90345   1.000
    C79     C    0.50848   0.87960   0.78885   1.000
    C80     C    0.52244   0.86454   0.85690   1.000
    C81     C    0.46896   0.80448   0.89450   1.000
    C82     C    0.98904   0.61710   0.78850   1.000
    C83     C    0.97539   0.63203   0.85670   1.000
    C84     C    0.02889   0.69220   0.89417   1.000
    C85     C    0.11637   0.48837   0.21097   1.000
    C86     C    0.13155   0.47424   0.14289   1.000
    C87     C    0.19147   0.52778   0.10528   1.000
    C88     C    0.38180   0.00775   0.21088   1.000
    C89     C    0.36690   0.02179   0.14276   1.000
    C90     C    0.30714   0.96816   0.10507   1.000
    C91     C    0.48947   0.38005   0.71103   1.000
    C92     C    0.47530   0.36489   0.64296   1.000
    C93     C    0.51409   0.41388   0.86050   1.000
    C94     C    0.50443   0.26248   0.06740   1.000
    C95     C    0.61702   0.18796   0.09671   1.000
    C96     C    0.00888   0.11694   0.71121   1.000
    C97     C    0.02250   0.13179   0.64303   1.000
    C98     C    0.05638   0.05604   0.74645   1.000
    C99     C    0.08516   0.08516   0.60900   1.000
    C100    C    0.44245   0.44129   0.74627   1.000
    C101    C    0.41252   0.41150   0.60945   1.000
    C102    C    0.45574   0.45449   0.81800   1.000
    C103    C    0.44198   0.05574   0.24646   1.000
    C104    C    0.41304   0.08514   0.10950   1.000
    C105    C    0.05578   0.44065   0.24630   1.000
    C106    C    0.08532   0.41107   0.10949   1.000
    C107    C    0.94190   0.55577   0.75350   1.000
    C108    C    0.91299   0.58515   0.89047   1.000
    C109    C    0.55578   0.94064   0.75360   1.000
    C110    C    0.58529   0.91108   0.89049   1.000
    C111    C    0.55632   0.55599   0.25353   1.000
    N112    N    0.20168   0.92435   0.03670   1.000
    N113    N    0.24738   0.85389   0.05566   1.000
    N114    N    0.44290   0.50329   0.92394   1.000
    N115    N    0.29684   0.57176   0.03690   1.000
    N116    N    0.25080   0.64211   0.05560   1.000
    N117    N    0.49286   0.55380   0.07619   1.000
    N118    N    0.42487   0.69911   0.96272   1.000
    N119    N    0.35458   0.74542   0.94436   1.000
    N120    N    0.07302   0.79749   0.96245   1.000
    N121    N    0.14323   0.75103   0.94416   1.000
    N122    N    0.55594   0.49353   0.07595   1.000
    N123    N    0.70160   0.42437   0.96318   1.000
    N124    N    0.74734   0.35392   0.94432   1.000
    N125    N    0.50613   0.44318   0.92357   1.000
    N126    N    0.57300   0.29748   0.03752   1.000
    N127    N    0.64323   0.25105   0.05581   1.000
loop_
    _geom_bond_atom_site_label_1
    _geom_bond_atom_site_label_2
    _geom_bond_distance
    _geom_bond_site_symmetry_2
    _ccdc_geom_bond_type
    N112   N113      1.37597      .   S
    N112   C42       1.35225      .   S
    N115   N116      1.37593      .   S
    N115   C47       1.35210      .   S
    N126   N127      1.37523      .   S
    N126   C94       1.35149      .   S
    N116   C48       1.35192      .   S
    N113   C43       1.35206      .   S
    N127   C95       1.35171      .   S
    H34    C104      1.09032      .   S
    H35    C106      1.09030      .   S
    H1     C42       1.08639  1_545   S
    H5     C47       1.08604      .   S
    H29    C94       1.08596      .   S
    C42    C90       1.40143      .   S
    C47    C87       1.40142      .   S
    C94    C51       1.40158      .   S
    N122   N117      1.37391      .   S
    N122   C76       1.34943      .   S
    N117   C65       1.34928      .   S
    C48    C87       1.40100      .   S
    C48    H6        1.08565      .   S
    C43    C90       1.40104      .   S
    C43    H2        1.08616      .   S
    C95    C51       1.40075      .   S
    C95    H30       1.08564      .   S
    C90    C89       1.47202  1_565   S
    C87    C86       1.47209      .   S
    C51    C50       1.47209      .   S
    C106   C86       1.40208      .   S
    C106   C57       1.40207      .   S
    C104   C89       1.40202      .   S
    C104   C50       1.40194      .   S
    C76    H20       1.08550      .   S
    C76    C53       1.40485      .   S
    C65    H12       1.08549      .   S
    C65    C53       1.40483      .   S
    C89    C88       1.40037      .   S
    C86    C85       1.40055      .   S
    C57    C56       1.40044      .   S
    C50    C49       1.40036      .   S
    C53    C111      1.46610      .   S
    C88    H26       1.09057  1_545   S
    C88    C103      1.40554      .   S
    C85    H25       1.09023      .   S
    C85    C105      1.40499      .   S
    C56    H8        1.09044  1_455   S
    C56    C105      1.40497      .   S
    C49    H7        1.09016      .   S
    C49    C103      1.40564      .   S
    C111   C63       1.40581      .   S
    C111   C74       1.40572      .   S
    C54    C68       1.40557      .   S
    C54    C72       1.40593      .   S
    H11    C63       1.09019      .   S
    H15    C68       1.09045  1_455   S
    H19    C74       1.09020      .   S
    H18    C72       1.09054  1_545   S
    C63    C64       1.40057      .   S
    C68    C69       1.40040      .   S
    C74    C75       1.40051      .   S
    C72    C73       1.40073      .   S
    C64    C52       1.40196      .   S
    C69    C55       1.40197      .   S
    C73    C55       1.40211      .   S
    C75    C52       1.40196      .   S
    C55    H39       1.09032      .   S
    C52    H38       1.08998      .   S
    H32    C99       1.08251      .   S
    H33    C101      1.09031      .   S
    C99    C41       1.40574      .   S
    C99    C97       1.40578      .   S
    C101   C45       1.40220      .   S
    C101   C92       1.40196      .   S
    C41    C40       1.40053      .   S
    C45    C44       1.40070      .   S
    C92    C91       1.40038      .   S
    C97    C96       1.40035      .   S
    C44    H3        1.09021      .   S
    C44    C100      1.40594      .   S
    C40    H0        1.09048  1_545   S
    C40    C98       1.40567      .   S
    C91    H27       1.09022      .   S
    C91    C100      1.40564      .   S
    C96    H31       1.09046  1_455   S
    C96    C98       1.40587      .   S
    C100   C102      1.46495      .   S
    C107   C82       1.40500      .   S
    C107   C58       1.40558      .   S
    C109   C79       1.40569      .   S
    C109   C61       1.40567      .   S
    H24    C82       1.08978  1_455   S
    H23    C79       1.09015      .   S
    H10    C61       1.09048  1_545   S
    H9     C58       1.09015      .   S
    C82    C83       1.40106      .   S
    C79    C80       1.39924      .   S
    C61    C62       1.40068      .   S
    C58    C59       1.40031      .   S
    C102   C93       1.40574      .   S
    C102   C46       1.40470      .   S
    H28    C93       1.08555      .   S
    H4     C46       1.08518      .   S
    C83    C108      1.40229      .   S
    C83    C84       1.47276  1_655   S
    C80    C110      1.40269      .   S
    C80    C81       1.47288      .   S
    C62    C110      1.40208      .   S
    C59    C108      1.40204      .   S
    C59    C60       1.47185      .   S
    C93    N125      1.34932      .   S
    C46    N114      1.35056      .   S
    H22    C78       1.08621      .   S
    H17    C71       1.08615      .   S
    H14    C67       1.08612      .   S
    C108   H36       1.08870      .   S
    C110   H37       1.09027      .   S
    C84    C71       1.40075      .   S
    C84    C70       1.40144      .   S
    C81    C67       1.40100      .   S
    C81    C66       1.40138      .   S
    C60    C78       1.40105      .   S
    C60    C77       1.40144      .   S
    C71    N121      1.35172      .   S
    C78    N124      1.35197      .   S
    C67    N119      1.35181      .   S
    N125   N114      1.37381      .   S
    C70    H16       1.08632  1_455   S
    C70    N120      1.35167      .   S
    C66    H13       1.08603      .   S
    C66    N118      1.35171      .   S
    C77    H21       1.08600      .   S
    C77    N123      1.35155      .   S
    N121   N120      1.37528      .   S
    N124   N123      1.37558      .   S
    N119   N118      1.37533      .   S
