# CIF file generated by openbabel 2.4.90, see http://openbabel.sf.net
data_I
_chemical_name_common ''
_cell_length_a 15.743
_cell_length_b 15.75
_cell_length_c 20.005
_cell_angle_alpha 90.001
_cell_angle_beta 90
_cell_angle_gamma 90.008
_space_group_name_H-M_alt 'P 1'
_space_group_name_Hall 'P 1'
loop_
    _symmetry_equiv_pos_as_xyz
    x,y,z
loop_
    _atom_site_label
    _atom_site_type_symbol
    _atom_site_fract_x
    _atom_site_fract_y
    _atom_site_fract_z
    _atom_site_occupancy
    Zn0     Zn   0.74843   0.24812   0.49995   1.000
    Zn1     Zn   0.74865   0.24808   0.99992   1.000
    Zn2     Zn   0.24843   0.74811   0.50002   1.000
    Zn3     Zn   0.08344   0.91516   0.99996   1.000
    Zn4     Zn   0.41500   0.58124   0.99999   1.000
    Zn5     Zn   0.58231   0.08127   0.50004   1.000
    Zn6     Zn   0.91475   0.41497   0.50003   1.000
    Zn7     Zn   0.91499   0.08125   0.99999   1.000
    Zn8     Zn   0.41478   0.91495   0.49994   1.000
    Zn9     Zn   0.08228   0.58125   0.49993   1.000
    H10     H    0.13669   0.94172   0.85036   1.000
    Zn11    Zn   0.24866   0.74805   0.60000   1.000
    H12     H    0.06169   0.86604   0.15072   1.000
    H13     H    0.86223   0.05526   0.14960   1.000
    H14     H    0.78890   0.94049   0.93998   1.000
    H15     H    0.64127   0.16084   0.88429   1.000
    H16     H    0.93776   0.13149   0.84963   1.000
    H17     H    0.05615   0.20657   0.06067   1.000
    H18     H    0.83601   0.35519   0.11538   1.000
    C19     C    0.08633   0.98674   0.86117   1.000
    C20     C    0.96896   0.30447   0.10547   1.000
    C21     C    0.69146   0.02781   0.89470   1.000
    C22     C    0.01417   0.91389   0.13946   1.000
    C23     C    0.91268   0.01032   0.13880   1.000
    C24     C    0.76151   0.00324   0.93335   1.000
    C25     C    0.68767   0.11598   0.90344   1.000
    C26     C    0.98510   0.08343   0.86080   1.000
    C27     C    0.99345   0.23423   0.06704   1.000
    C28     C    0.88080   0.30856   0.09640   1.000
    C29     C    0.04341   0.04288   0.81820   1.000
    C30     C    0.95576   0.95447   0.18192   1.000
    N31     N    0.05602   0.99358   0.92403   1.000
    N32     N    0.00000   0.94318   0.07639   1.000
    N33     N    0.94291   0.00000   0.07600   1.000
    N34     N    0.79683   0.07179   0.96303   1.000
    N35     N    0.75080   0.14214   0.94437   1.000
    N36     N    0.99290   0.05381   0.92378   1.000
    N37     N    0.92487   0.19911   0.03724   1.000
    N38     N    0.85458   0.24542   0.05561   1.000
loop_
    _geom_bond_atom_site_label_1
    _geom_bond_atom_site_label_2
    _geom_bond_distance
    _geom_bond_site_symmetry_2
    _ccdc_geom_bond_type
    N37    N38       1.37535      .   S
    N37    C27       1.35172      .   S
    N37    Zn7       2.00634  1_554   S
    N38    C28       1.35090      .   S
    N38    Zn1       2.00598  1_554   S
    H17    C27       1.08639  1_455   S
    C27    C20       1.40138      .   S
    N33    N32       1.26845  1_645   S
    N33    C23       1.35321      .   S
    N33    Zn7       2.03542  1_554   S
    N32    C22       1.36183      .   S
    N32    Zn3       2.06358  1_554   S
    C28    C20       1.40120      .   S
    C28    H18       1.08668      .   S
    C23    H13       1.08575      .   S
    C23    C30       1.40636  1_545   S
    C22    H12       1.08555      .   S
    C22    C30       1.40557  1_455   S
    Zn2    Zn11      2.00010      .   S
    C29    C26       1.40611  1_455   S
    C29    C19       1.40618  1_545   S
    H16    C26       1.08550      .   S
    H10    C19       1.08552      .   S
    C26    N36       1.34913      .   S
    C19    N31       1.34931      .   S
    H15    C25       1.08618      .   S
    C21    C25       1.40098      .   S
    C21    C24       1.40140      .   S
    C25    N35       1.35193      .   S
    N36    N31       1.37394  1_645   S
    N36    Zn7       2.00383      .   S
    N31    Zn3       2.00482      .   S
    C24    H14       1.08646  1_545   S
    C24    N34       1.35170      .   S
    N35    N34       1.37568      .   S
    N35    Zn1       2.00498      .   S
    N34    Zn7       2.00724      .   S
