# CIF file generated by openbabel 2.4.90, see http://openbabel.sf.net
data_I
_chemical_name_common ''
_cell_length_a 15.743
_cell_length_b 15.75
_cell_length_c 20.005
_cell_angle_alpha 90.001
_cell_angle_beta 90
_cell_angle_gamma 90.008
_space_group_name_H-M_alt 'P 1'
_space_group_name_Hall 'P 1'
loop_
    _symmetry_equiv_pos_as_xyz
    x,y,z
loop_
    _atom_site_label
    _atom_site_type_symbol
    _atom_site_fract_x
    _atom_site_fract_y
    _atom_site_fract_z
    _atom_site_occupancy
    Zn0     Zn   0.74843   0.24812   0.49995   1.000
    Zn1     Zn   0.74865   0.24808   0.99992   1.000
    Zn2     Zn   0.24843   0.74811   0.50002   1.000
    Zn3     Zn   0.08344   0.91516   0.99996   1.000
    Zn4     Zn   0.41500   0.58124   0.99999   1.000
    Zn5     Zn   0.58231   0.08127   0.50004   1.000
    Zn6     Zn   0.91475   0.41497   0.50003   1.000
    Zn7     Zn   0.91499   0.08125   0.99999   1.000
    Zn8     Zn   0.41478   0.91495   0.49994   1.000
    Zn9     Zn   0.08228   0.58125   0.49993   1.000
    H10     H    0.13669   0.94172   0.85036   1.000
    H11     H    0.56048   0.13118   0.34972   1.000
    H12     H    0.44129   0.20675   0.56081   1.000
    H13     H    0.66159   0.35524   0.61537   1.000
    H14     H    0.93665   0.36549   0.34938   1.000
    H15     H    0.05591   0.29007   0.56110   1.000
    H16     H    0.83608   0.14046   0.61497   1.000
    H17     H    0.86151   0.44133   0.64973   1.000
    H18     H    0.78890   0.55565   0.44013   1.000
    H19     H    0.64075   0.33557   0.38450   1.000
    Zn20    Zn   0.24866   0.74805   0.60000   1.000
    H21     H    0.63614   0.05475   0.64950   1.000
    H22     H    0.70911   0.94068   0.43983   1.000
    H23     H    0.85637   0.16145   0.38443   1.000
    H24     H    0.06169   0.86604   0.15072   1.000
    H25     H    0.86223   0.05526   0.14960   1.000
    H26     H    0.78890   0.94049   0.93998   1.000
    H27     H    0.64127   0.16084   0.88429   1.000
    H28     H    0.43672   0.86544   0.65057   1.000
    H29     H    0.55589   0.79001   0.43890   1.000
    H30     H    0.33605   0.64047   0.38499   1.000
    H31     H    0.06047   0.63114   0.65026   1.000
    H32     H    0.94125   0.70675   0.43916   1.000
    H33     H    0.16162   0.85518   0.38458   1.000
    H34     H    0.13617   0.55468   0.35040   1.000
    H35     H    0.20907   0.44070   0.56013   1.000
    H36     H    0.35636   0.66141   0.61554   1.000
    H37     H    0.36165   0.94124   0.35023   1.000
    H38     H    0.28899   0.05567   0.55988   1.000
    H39     H    0.14074   0.83560   0.61537   1.000
    H40     H    0.93776   0.13149   0.84963   1.000
    H41     H    0.05615   0.20657   0.06067   1.000
    H42     H    0.83601   0.35519   0.11538   1.000
    C43     C    0.08633   0.98674   0.86117   1.000
    C44     C    0.19133   0.96851   0.60510   1.000
    C45     C    0.30641   0.52826   0.60525   1.000
    C46     C    0.51308   0.08315   0.36082   1.000
    C47     C    0.50399   0.23434   0.56716   1.000
    C48     C    0.61675   0.30860   0.59653   1.000
    C49     C    0.98415   0.41337   0.36062   1.000
    C50     C    0.96896   0.30447   0.10547   1.000
    C51     C    0.99328   0.26220   0.56727   1.000
    C52     C    0.88076   0.18735   0.59627   1.000
    C53     C    0.91184   0.48638   0.63888   1.000
    C54     C    0.76138   0.49298   0.43352   1.000
    C55     C    0.68729   0.38034   0.40365   1.000
    C56     C    0.58566   0.00982   0.63885   1.000
    C57     C    0.69146   0.02781   0.89470   1.000
    C58     C    0.73632   0.00353   0.43325   1.000
    C59     C    0.80998   0.11647   0.40345   1.000
    C60     C    0.46885   0.69170   0.39440   1.000
    C61     C    0.01417   0.91389   0.13946   1.000
    C62     C    0.02861   0.80462   0.39447   1.000
    C63     C    0.91268   0.01032   0.13880   1.000
    C64     C    0.80644   0.02829   0.39471   1.000
    C65     C    0.76151   0.00324   0.93335   1.000
    C66     C    0.68767   0.11598   0.90344   1.000
    C67     C    0.69130   0.46850   0.39487   1.000
    C68     C    0.48421   0.91334   0.63934   1.000
    C69     C    0.49327   0.76215   0.43272   1.000
    C70     C    0.38074   0.68733   0.40370   1.000
    C71     C    0.01305   0.58313   0.63915   1.000
    C72     C    0.00399   0.73433   0.43281   1.000
    C73     C    0.11677   0.80856   0.40343   1.000
    C74     C    0.08567   0.50978   0.36113   1.000
    C75     C    0.23629   0.50351   0.56670   1.000
    C76     C    0.30996   0.61644   0.59650   1.000
    C77     C    0.41194   0.98632   0.36108   1.000
    C78     C    0.26143   0.99298   0.56647   1.000
    C79     C    0.18729   0.88036   0.59629   1.000
    C80     C    0.52860   0.30464   0.60549   1.000
    C81     C    0.98510   0.08343   0.86080   1.000
    C82     C    0.96886   0.19175   0.60550   1.000
    C83     C    0.99345   0.23423   0.06704   1.000
    C84     C    0.88080   0.30856   0.09640   1.000
    C85     C    0.04341   0.04288   0.81820   1.000
    C86     C    0.45492   0.04249   0.31823   1.000
    C87     C    0.04260   0.45387   0.31810   1.000
    C88     C    0.95483   0.54251   0.68173   1.000
    C89     C    0.54261   0.95386   0.68182   1.000
    C90     C    0.95576   0.95447   0.18192   1.000
    N91     N    0.05602   0.99358   0.92403   1.000
    N92     N    0.50512   0.05356   0.42379   1.000
    N93     N    0.57254   0.19906   0.53743   1.000
    N94     N    0.64288   0.24533   0.55577   1.000
    N95     N    0.99205   0.44283   0.42364   1.000
    N96     N    0.92469   0.29716   0.53737   1.000
    N97     N    0.85449   0.25053   0.55548   1.000
    N98     N    0.94201   0.49326   0.57598   1.000
    N99     N    0.79654   0.42438   0.46322   1.000
    N100    N    0.75038   0.35411   0.44458   1.000
    N101    N    0.55533   0.00000   0.57599   1.000
    N102    N    0.70070   0.07197   0.46284   1.000
    N103    N    0.74662   0.14244   0.44424   1.000
    N104    N    0.00000   0.94318   0.07639   1.000
    N105    N    0.94291   0.00000   0.07600   1.000
    N106    N    0.79683   0.07179   0.96303   1.000
    N107    N    0.75080   0.14214   0.94437   1.000
    N108    N    0.49208   0.94280   0.57632   1.000
    N109    N    0.42469   0.79714   0.46261   1.000
    N110    N    0.35448   0.75052   0.44449   1.000
    N111    N    0.00000   0.55354   0.57618   1.000
    N112    N    0.07253   0.69905   0.46255   1.000
    N113    N    0.14288   0.74529   0.44420   1.000
    N114    N    0.05533   0.50290   0.42398   1.000
    N115    N    0.20067   0.57196   0.53713   1.000
    N116    N    0.24661   0.64242   0.55573   1.000
    N117    N    0.44210   0.99324   0.42398   1.000
    N118    N    0.29658   0.92439   0.53675   1.000
    N119    N    0.25038   0.85412   0.55537   1.000
    N120    N    0.99290   0.05381   0.92378   1.000
    N121    N    0.92487   0.19911   0.03724   1.000
    N122    N    0.85458   0.24542   0.05561   1.000
    Ts123   Ts   0.74822   0.28336   0.98139   1.000
    Ts124   Ts   0.71351   0.24907   0.01855   1.000
    Ts125   Ts   0.12285   0.91822   0.01221   1.000
    Ts126   Ts   0.07997   0.87594   0.98746   1.000
    Ts127   Ts   0.42430   0.55525   0.97464   1.000
    Ts128   Ts   0.37561   0.57808   0.01229   1.000
    Ts129   Ts   0.44095   0.57209   0.02539   1.000
    Ts130   Ts   0.41829   0.62053   0.98757   1.000
    Ts131   Ts   0.17143   0.98640   0.61766   1.000
    Ts132   Ts   0.32644   0.51045   0.61778   1.000
    Ts133   Ts   0.98679   0.32449   0.11798   1.000
    Ts134   Ts   0.67149   0.00995   0.88216   1.000
    Ts135   Ts   0.48671   0.67172   0.38192   1.000
    Ts136   Ts   0.01084   0.82470   0.38198   1.000
    Ts137   Ts   0.82646   0.01047   0.38218   1.000
    Ts138   Ts   0.67138   0.48637   0.38231   1.000
    Ts139   Ts   0.51083   0.32473   0.61798   1.000
    Ts140   Ts   0.98674   0.17176   0.61801   1.000
    Ts141   Ts   0.04773   0.04726   0.79428   1.000
    Ts142   Ts   0.45061   0.04691   0.29431   1.000
    Ts143   Ts   0.04700   0.44946   0.29417   1.000
    Ts144   Ts   0.95052   0.54693   0.70565   1.000
    Ts145   Ts   0.54700   0.94945   0.70575   1.000
    Ts146   Ts   0.95133   0.95007   0.20584   1.000
loop_
    _geom_bond_atom_site_label_1
    _geom_bond_atom_site_label_2
    _geom_bond_distance
    _geom_bond_site_symmetry_2
    _ccdc_geom_bond_type
    N121   N122      1.37535      .   S
    N121   C83       1.35172      .   S
    N121   Zn7       2.00634  1_554   S
    N122   C84       1.35090      .   S
    N122   Zn1       2.00598  1_554   S
    H41    C83       1.08639  1_455   S
    C83    C50       1.40138      .   S
    N105   N104      1.26845  1_645   S
    N105   C63       1.35321      .   S
    N105   Zn7       2.03542  1_554   S
    N104   C61       1.36183      .   S
    N104   Zn3       2.06358  1_554   S
    C84    C50       1.40120      .   S
    C84    H42       1.08668      .   S
    C63    H25       1.08575      .   S
    C63    C90       1.40636  1_545   S
    C61    H24       1.08555      .   S
    C61    C90       1.40557  1_455   S
    C87    C49       1.40606  1_455   S
    C87    C74       1.40569      .   S
    C86    C46       1.40499      .   S
    C86    C77       1.40547  1_545   S
    H14    C49       1.08551      .   S
    H11    C46       1.08548      .   S
    H37    C77       1.08538      .   S
    H34    C74       1.08546      .   S
    C49    N95       1.34911      .   S
    C46    N92       1.34899      .   S
    C77    N117      1.34927      .   S
    C74    N114      1.34934      .   S
    H23    C59       1.08623      .   S
    H19    C55       1.08652      .   S
    H33    C73       1.08617      .   S
    H30    C70       1.08619      .   S
    C60    C70       1.40114      .   S
    C60    C69       1.40225      .   S
    C62    C73       1.40073      .   S
    C62    C72       1.40143      .   S
    C64    C59       1.40091      .   S
    C64    C58       1.40180      .   S
    C67    C55       1.40091      .   S
    C67    C54       1.40132      .   S
    C73    N113      1.35167      .   S
    C59    N103      1.35206      .   S
    C55    N100      1.35194      .   S
    C70    N110      1.35180      .   S
    N95    N114      1.37381  1_655   S
    N95    Zn6       2.00213      .   S
    N92    N117      1.37355  1_545   S
    N92    Zn5       1.99840      .   S
    N114   Zn9       2.00275      .   S
    N117   Zn8       2.00361      .   S
    C69    H29       1.08603      .   S
    C69    N109      1.35171      .   S
    C72    H32       1.08634  1_455   S
    C72    N112      1.35167      .   S
    C58    H22       1.08645  1_545   S
    C58    N102      1.35171      .   S
    C54    H18       1.08601      .   S
    C54    N99       1.35156      .   S
    N113   N112      1.37540      .   S
    N113   Zn2       2.00261      .   S
    N103   N102      1.37573      .   S
    N103   Zn0       2.00342      .   S
    N110   N109      1.37546      .   S
    N110   Zn2       2.00567      .   S
    N100   N99       1.37546      .   S
    N100   Zn0       2.00364      .   S
    N112   Zn9       2.00625      .   S
    N109   Zn8       2.00630      .   S
    N102   Zn5       2.01226      .   S
    N99    Zn6       2.00693      .   S
    Zn9    N115      2.01223      .   S
    Zn9    N111      2.04818      .   S
    Zn8    N118      2.00682      .   S
    Zn8    N108      2.00196      .   S
    Zn0    N97       2.00578      .   S
    Zn0    N94       2.00258      .   S
    Zn2    N119      2.00369      .   S
    Zn2    N116      2.00348      .   S
    Zn2    Zn20      2.00010      .   S
    Zn6    N96       2.00629      .   S
    Zn6    N98       2.00323      .   S
    Zn5    N93       2.00632      .   S
    Zn5    N101      2.03151      .   S
    N118   N119      1.37550      .   S
    N118   C78       1.35163      .   S
    N115   N116      1.37573      .   S
    N115   C75       1.35160      .   S
    N96    N97       1.37547      .   S
    N96    C51       1.35170      .   S
    N93    N94       1.37536      .   S
    N93    C47       1.35166      .   S
    N119   C79       1.35183      .   S
    N119   Zn20      1.89446      .   S
    N97    C52       1.35177      .   S
    N116   C76       1.35190      .   S
    N116   Zn20      1.88497      .   S
    N94    C48       1.35170      .   S
    H38    C78       1.08647  1_545   S
    H35    C75       1.08597      .   S
    H12    C47       1.08601      .   S
    H15    C51       1.08637  1_455   S
    C78    C44       1.40126      .   S
    C75    C45       1.40195      .   S
    C47    C80       1.40143      .   S
    C51    C82       1.40131      .   S
    N98    N111      1.31704  1_655   S
    N98    C53       1.34931      .   S
    N101   N108      1.34273  1_545   S
    N101   C56       1.35397      .   S
    N111   C71       1.35878      .   S
    N108   C68       1.34912      .   S
    C52    C82       1.40093      .   S
    C52    H16       1.08618      .   S
    C79    C44       1.40092      .   S
    C79    H39       1.08615      .   S
    C76    C45       1.40093      .   S
    C76    H36       1.08637      .   S
    C48    C80       1.40073      .   S
    C48    H13       1.08614      .   S
    C56    H21       1.08511      .   S
    C56    C89       1.40536  1_545   S
    C53    H17       1.08542      .   S
    C53    C88       1.40509      .   S
    C71    H31       1.08549      .   S
    C71    C88       1.40521  1_455   S
    C68    H28       1.08549      .   S
    C68    C89       1.40523      .   S
    C85    C81       1.40611  1_455   S
    C85    C43       1.40618  1_545   S
    H40    C81       1.08550      .   S
    H10    C43       1.08552      .   S
    C81    N120      1.34913      .   S
    C43    N91       1.34931      .   S
    H27    C66       1.08618      .   S
    C57    C66       1.40098      .   S
    C57    C65       1.40140      .   S
    C66    N107      1.35193      .   S
    N120   N91       1.37394  1_645   S
    N120   Zn7       2.00383      .   S
    N91    Zn3       2.00482      .   S
    C65    H26       1.08646  1_545   S
    C65    N106      1.35170      .   S
    N107   N106      1.37568      .   S
    N107   Zn1       2.00498      .   S
    N106   Zn7       2.00724      .   S
    Zn1    Ts123     0.66808      .   S
    Zn1    Ts124     0.66723  1_556   S
    Zn3    Ts125     0.66880  1_556   S
    Zn3    Ts126     0.66873      .   S
    Zn4    Ts127     0.66792      .   S
    Zn4    Ts128     0.66894  1_556   S
    Zn4    Ts129     0.66778  1_556   S
    Zn4    Ts130     0.66887      .   S
    C44    Ts131     0.49070      .   S
    C45    Ts132     0.49079      .   S
    C50    Ts133     0.49081      .   S
    C57    Ts134     0.49079      .   S
    C60    Ts135     0.49048      .   S
    C62    Ts136     0.49071      .   S
    C64    Ts137     0.49086      .   S
    C67    Ts138     0.49061      .   S
    C80    Ts139     0.49063      .   S
    C82    Ts140     0.49085      .   S
    C85    Ts141     0.48818      .   S
    C86    Ts142     0.48836      .   S
    C87    Ts143     0.48870      .   S
    C88    Ts144     0.48836      .   S
    C89    Ts145     0.48856      .   S
    C90    Ts146     0.48858      .   S
