# CIF file generated by openbabel 2.4.90, see http://openbabel.sf.net
data_I
_chemical_name_common ''
_cell_length_a 15.743
_cell_length_b 15.75
_cell_length_c 20.005
_cell_angle_alpha 90.001
_cell_angle_beta 90
_cell_angle_gamma 90.008
_space_group_name_H-M_alt 'P 1'
_space_group_name_Hall 'P 1'
loop_
    _symmetry_equiv_pos_as_xyz
    x,y,z
loop_
    _atom_site_label
    _atom_site_type_symbol
    _atom_site_fract_x
    _atom_site_fract_y
    _atom_site_fract_z
    _atom_site_occupancy
    Zr0     Zr   0.74843   0.24812   0.49995   1.000
    Zr1     Zr   0.58231   0.08127   0.50004   1.000
    Zr2     Zr   0.91475   0.41497   0.50003   1.000
    Zr3     Zr   0.41478   0.91495   0.49994   1.000
    Zr4     Zr   0.08228   0.58125   0.49993   1.000
    N5      N    0.92817   0.56977   0.82284   1.000
    N6      N    0.92823   0.92710   0.32299   1.000
    N7      N    0.56999   0.56983   0.32295   1.000
    N8      N    0.06981   0.42659   0.17703   1.000
    N9      N    0.07004   0.06988   0.67699   1.000
    N10     N    0.42821   0.42711   0.67697   1.000
    N11     N    0.42824   0.06974   0.17711   1.000
    N12     N    0.56980   0.92659   0.82293   1.000
    Zr13    Zr   0.24854   0.74808   0.55001   1.000
    C14     C    0.76650   0.06640   0.42325   1.000
    O15     O    0.75702   0.13084   0.44767   1.000
    O16     O    0.82443   0.01537   0.38635   1.000
    O17     O    0.70400   0.07151   0.45235   1.000
    C18     C    0.26648   0.56639   0.57671   1.000
    O19     O    0.32440   0.51536   0.61361   1.000
    O20     O    0.20398   0.57150   0.54762   1.000
    C21     C    0.46418   0.03302   0.36969   1.000
    O22     O    0.44631   0.99356   0.41583   1.000
    O23     O    0.50395   0.05022   0.41580   1.000
    O24     O    0.45126   0.04623   0.29971   1.000
    C25     C    0.56681   0.26485   0.57694   1.000
    O26     O    0.57211   0.20251   0.54784   1.000
    O27     O    0.63123   0.25579   0.55240   1.000
    O28     O    0.51594   0.32290   0.61377   1.000
    C29     C    0.23096   0.93023   0.57646   1.000
    O30     O    0.29332   0.92495   0.54740   1.000
    O31     O    0.17336   0.98142   0.61346   1.000
    C32     C    0.73093   0.43022   0.42350   1.000
    O33     O    0.67332   0.48139   0.38649   1.000
    O34     O    0.74017   0.36567   0.44788   1.000
    O35     O    0.79329   0.42495   0.45256   1.000
    C36     C    0.06681   0.76482   0.42303   1.000
    O37     O    0.07210   0.70249   0.45213   1.000
    O38     O    0.14445   0.75611   0.46704   1.000
    O39     O    0.01595   0.82287   0.38619   1.000
    C40     C    0.03323   0.46328   0.36961   1.000
    O41     O    0.05102   0.50268   0.41578   1.000
    O42     O    0.99332   0.44609   0.41572   1.000
    O43     O    0.04637   0.45010   0.29961   1.000
    C44     C    0.43057   0.73133   0.42312   1.000
    O45     O    0.35278   0.74002   0.46712   1.000
    O46     O    0.42515   0.79369   0.45220   1.000
    O47     O    0.48169   0.67355   0.38621   1.000
    C48     C    0.96339   0.53304   0.63027   1.000
    O49     O    0.95083   0.54625   0.70025   1.000
    O50     O    0.00226   0.55022   0.58416   1.000
    O51     O    0.94588   0.49358   0.58414   1.000
    C52     C    0.53325   0.96286   0.63034   1.000
    O53     O    0.49334   0.94587   0.58424   1.000
    O54     O    0.55104   0.00174   0.58418   1.000
    O55     O    0.54637   0.94989   0.70033   1.000
    C56     C    0.93058   0.23136   0.57685   1.000
    O57     O    0.86602   0.24034   0.55228   1.000
    O58     O    0.92515   0.29371   0.54778   1.000
    O59     O    0.98172   0.17359   0.61374   1.000
    Zr60    Zr   0.91510   0.08184   0.00005   1.000
    O61     O    0.98753   0.07076   0.86486   1.000
    O62     O    0.97393   0.23119   0.07535   1.000
    O63     O    0.77332   0.16126   0.02627   1.000
    O64     O    0.83636   0.22367   0.97392   1.000
    O65     O    0.99389   0.93796   0.97604   1.000
    O66     O    0.06001   0.00335   0.02374   1.000
    O67     O    0.76537   0.02282   0.92473   1.000
    O68     O    0.92688   0.00967   0.13523   1.000
    Zr69    Zr   0.41500   0.58124   0.99999   1.000
    O70     O    0.43100   0.54213   0.95786   1.000
    O71     O    0.42015   0.64186   0.97612   1.000
    O72     O    0.45447   0.56584   0.04208   1.000
    O73     O    0.35428   0.57625   0.02377   1.000
    O74     O    0.25727   0.64403   0.56408   1.000
    O75     O    0.23998   0.85241   0.56391   1.000
loop_
    _geom_bond_atom_site_label_1
    _geom_bond_atom_site_label_2
    _geom_bond_distance
    _geom_bond_site_symmetry_2
    _ccdc_geom_bond_type
    C14    O15       1.13626      .   S
    Zr0    O15       2.12701      .   S
    C14    O16       1.42222      .   S
    N6     O16       2.49203  1_565   S
    C14    O17       1.14606      .   S
    Zr1    O17       2.14585      .   S
    C18    O19       1.42216      .   S
    N10    O19       2.49189      .   S
    C18    O20       1.14604      .   S
    Zr4    O20       2.14582      .   S
    C21    O22       1.14770  1_545   S
    Zr3    O22       2.14724      .   S
    C21    O23       1.14721      .   S
    Zr1    O23       2.14484      .   S
    C21    O24       1.42993      .   S
    N11    O24       2.50685      .   S
    C25    O26       1.14457      .   S
    Zr1    O26       2.14159      .   S
    C25    O27       1.13581      .   S
    Zr0    O27       2.12602      .   S
    C25    O28       1.42125      .   S
    N10    O28       2.49017      .   S
    C29    O30       1.14394      .   S
    Zr3    O30       2.14073      .   S
    C29    O31       1.42145      .   S
    N9     O31       2.49044  1_545   S
    C32    O33       1.42145      .   S
    N7     O33       2.49062      .   S
    C32    O34       1.13700      .   S
    Zr0    O34       2.12826      .   S
    C32    O35       1.14398      .   S
    Zr2    O35       2.14082      .   S
    C36    O37       1.14455      .   S
    Zr4    O37       2.14153      .   S
    C36    O38       1.51277      .   S
    Zr13   O38       2.33584      .   S
    C36    O39       1.42131      .   S
    N6     O39       2.49028  1_655   S
    C40    O41       1.14746      .   S
    Zr4    O41       2.14647      .   S
    C40    O42       1.14854  1_455   S
    Zr2    O42       2.14812      .   S
    C40    O43       1.43058      .   S
    N8     O43       2.50732      .   S
    C44    O45       1.51438      .   S
    Zr13   O45       2.33636      .   S
    C44    O46       1.14466      .   S
    Zr3    O46       2.14166      .   S
    C44    O47       1.42163      .   S
    N7     O47       2.49068      .   S
    C48    O49       1.42901      .   S
    N5     O49       2.50575      .   S
    C48    O50       1.13954  1_655   S
    Zr4    O50       2.15989      .   S
    C48    O51       1.14629      .   S
    Zr2    O51       2.14570      .   S
    C52    O53       1.14763      .   S
    Zr3    O53       2.14714      .   S
    C52    O54       1.14295  1_565   S
    Zr1    O54       2.15500      .   S
    C52    O55       1.42996      .   S
    N12    O55       2.50715      .   S
    C56    O57       1.13782      .   S
    Zr0    O57       2.13028      .   S
    C56    O58       1.14460      .   S
    Zr2    O58       2.14161      .   S
    C56    O59       1.42154      .   S
    N9     O59       2.49063  1_455   S
    Zr60   O61       2.94041  1_554   S
    N9     O61       3.97642  1_455   S
    Zr60   O62       2.94260      .   S
    N8     O62       3.98569  1_455   S
    Zr60   O63       2.61191      .   S
    N11    O63       6.37927      .   S
    Zr60   O64       2.60785  1_554   S
    N5     O64       6.39804      .   S
    Zr60   O65       2.62798  1_544   S
    N5     O65       6.63996      .   S
    Zr60   O66       2.63783  1_655   S
    N11    O66       6.64150      .   S
    Zr60   O67       2.94785  1_554   S
    N12    O67       3.99042  1_565   S
    Zr60   O68       2.93922      .   S
    N6     O68       3.97500  1_565   S
    Zr69   O70       1.07380      .   S
    N10    O70       5.90430      .   S
    Zr69   O71       1.07069      .   S
    N12    O71       5.92025      .   S
    Zr69   O72       1.07435  1_556   S
    N7     O72       5.90598      .   S
    Zr69   O73       1.07053  1_556   S
    N8     O73       5.91697      .   S
    C18    O74       1.25709      .   S
    Zr13   O74       1.66852      .   S
    C29    O75       1.25920      .   S
    Zr13   O75       1.67202      .   S
