# CIF file generated by openbabel 2.4.90, see http://openbabel.sf.net
data_I
_chemical_name_common ''
_cell_length_a 14.609
_cell_length_b 21.986
_cell_length_c 21.972
_cell_angle_alpha 60.764
_cell_angle_beta 90.014
_cell_angle_gamma 89.993
_space_group_name_H-M_alt 'P 1'
_space_group_name_Hall 'P 1'
loop_
    _symmetry_equiv_pos_as_xyz
    x,y,z
loop_
    _atom_site_label
    _atom_site_type_symbol
    _atom_site_fract_x
    _atom_site_fract_y
    _atom_site_fract_z
    _atom_site_occupancy
    Zr0     Zr   0.99984   0.99968   0.50010   1.000
    Zr1     Zr   0.49986   0.99968   0.50010   1.000
    Zr2     Zr   0.25017   0.99969   0.50009   1.000
    Zr3     Zr   0.75018   0.99969   0.50009   1.000
    Zr4     Zr   0.24994   0.50191   0.00000   1.000
    Zr5     Zr   0.74995   0.50191   0.00000   1.000
    Zr6     Zr   0.00014   0.50184   0.00000   1.000
    Zr7     Zr   0.50015   0.50184   0.00000   1.000
    Zr8     Zr   0.00005   0.99806   0.00240   1.000
    Zr9     Zr   0.50006   0.99806   0.00247   1.000
    Zr10    Zr   0.24993   0.99795   0.00256   1.000
    Zr11    Zr   0.74994   0.99794   0.00256   1.000
    N12     N    0.62501   0.03027   0.73583   1.000
    O13     O    0.57420   0.02096   0.63829   1.000
    O14     O    0.57426   0.02192   0.84215   1.000
    O15     O    0.67575   0.02184   0.84221   1.000
    O16     O    0.67582   0.02093   0.63831   1.000
    N17     N    0.62504   0.25885   0.25887   1.000
    O18     O    0.67582   0.35860   0.15504   1.000
    O19     O    0.57424   0.15459   0.35785   1.000
    O20     O    0.57434   0.35876   0.15511   1.000
    O21     O    0.67580   0.15459   0.35783   1.000
    N22     N    0.87498   0.26521   0.96907   1.000
    O23     O    0.82427   0.36325   0.97814   1.000
    O24     O    0.92576   0.15871   0.97785   1.000
    O25     O    0.92584   0.36297   0.97848   1.000
    O26     O    0.82421   0.15867   0.97790   1.000
    N27     N    0.62493   0.73529   0.03349   1.000
    O28     O    0.67569   0.84009   0.02628   1.000
    O29     O    0.57422   0.63911   0.02209   1.000
    O30     O    0.57427   0.84017   0.02616   1.000
    O31     O    0.67563   0.63877   0.02266   1.000
    N32     N    0.37497   0.26521   0.96907   1.000
    O33     O    0.32426   0.36325   0.97814   1.000
    O34     O    0.32419   0.15867   0.97790   1.000
    O35     O    0.42576   0.15871   0.97787   1.000
    O36     O    0.42584   0.36297   0.97849   1.000
    N37     N    0.37496   0.74233   0.74290   1.000
    O38     O    0.32430   0.84578   0.64315   1.000
    O39     O    0.32417   0.64388   0.84676   1.000
    O40     O    0.42569   0.84577   0.64316   1.000
    O41     O    0.42570   0.64345   0.84648   1.000
    N42     N    0.12491   0.73529   0.03349   1.000
    O43     O    0.17561   0.63877   0.02266   1.000
    O44     O    0.07426   0.84017   0.02617   1.000
    O45     O    0.07420   0.63911   0.02209   1.000
    O46     O    0.17568   0.84009   0.02628   1.000
    N47     N    0.12500   0.03027   0.73583   1.000
    O48     O    0.07425   0.02192   0.84214   1.000
    O49     O    0.17581   0.02093   0.63831   1.000
    O50     O    0.07419   0.02096   0.63829   1.000
    O51     O    0.17573   0.02184   0.84221   1.000
    N52     N    0.12525   0.48253   0.94335   1.000
    O53     O    0.15639   0.49203   0.95901   1.000
    O54     O    0.09394   0.49201   0.95901   1.000
    N55     N    0.12502   0.25885   0.25887   1.000
    O56     O    0.17579   0.15459   0.35783   1.000
    O57     O    0.17580   0.35860   0.15504   1.000
    O58     O    0.07423   0.15459   0.35785   1.000
    O59     O    0.07433   0.35876   0.15511   1.000
    N60     N    0.37504   0.96672   0.26576   1.000
    O61     O    0.32430   0.97732   0.36255   1.000
    O62     O    0.32428   0.97430   0.16064   1.000
    O63     O    0.42576   0.97731   0.36257   1.000
    O64     O    0.42578   0.97435   0.16061   1.000
    N65     N    0.87497   0.74233   0.74289   1.000
    O66     O    0.92570   0.64345   0.84648   1.000
    O67     O    0.82419   0.64388   0.84676   1.000
    O68     O    0.92569   0.84577   0.64316   1.000
    O69     O    0.82431   0.84577   0.64315   1.000
    N70     N    0.12503   0.05572   0.01935   1.000
    O71     O    0.15625   0.03498   0.01752   1.000
    O72     O    0.09378   0.03501   0.01748   1.000
    N73     N    0.87525   0.47747   0.07697   1.000
    O74     O    0.90645   0.48844   0.05179   1.000
    O75     O    0.84390   0.48846   0.05179   1.000
    N76     N    0.87505   0.96672   0.26550   1.000
    O77     O    0.82429   0.97430   0.16051   1.000
    O78     O    0.82432   0.97732   0.36243   1.000
    O79     O    0.92577   0.97731   0.36244   1.000
    O80     O    0.92578   0.97435   0.16046   1.000
    N81     N    0.37498   0.07591   0.47869   1.000
    O82     O    0.34378   0.05088   0.48884   1.000
    O83     O    0.40621   0.05088   0.48885   1.000
    N84     N    0.37498   0.98052   0.94529   1.000
    O85     O    0.40626   0.98265   0.96587   1.000
    O86     O    0.34372   0.98262   0.96589   1.000
    N87     N    0.37524   0.47747   0.07697   1.000
    O88     O    0.40644   0.48844   0.05179   1.000
    O89     O    0.34389   0.48846   0.05179   1.000
    N90     N    0.87500   0.07591   0.47869   1.000
    O91     O    0.90621   0.05088   0.48885   1.000
    O92     O    0.84380   0.05088   0.48884   1.000
    N93     N    0.62506   0.92378   0.52130   1.000
    O94     O    0.65634   0.94876   0.51125   1.000
    O95     O    0.59376   0.94876   0.51126   1.000
    N96     N    0.62504   0.05572   0.01935   1.000
    O97     O    0.59379   0.03501   0.01749   1.000
    O98     O    0.65626   0.03498   0.01752   1.000
    N99     N    0.87499   0.98052   0.94529   1.000
    O100    O    0.90626   0.98265   0.96585   1.000
    O101    O    0.84374   0.98262   0.96589   1.000
    N102    N    0.12505   0.92378   0.52130   1.000
    O103    O    0.15632   0.94876   0.51125   1.000
    O104    O    0.09374   0.94876   0.51126   1.000
    N105    N    0.62526   0.48253   0.94335   1.000
    O106    O    0.65640   0.49203   0.95901   1.000
    O107    O    0.59395   0.49201   0.95901   1.000
loop_
    _geom_bond_atom_site_label_1
    _geom_bond_atom_site_label_2
    _geom_bond_distance
    _geom_bond_site_symmetry_2
    _ccdc_geom_bond_type
    N12    O13       2.36925      .   S
    Zr1    O13       3.46475  1_565   S
    N12    O14       2.37126      .   S
    Zr9    O14       3.47198  1_564   S
    N12    O15       2.37119      .   S
    Zr11   O15       3.47193  1_564   S
    N12    O16       2.36959      .   S
    Zr3    O16       3.46538  1_565   S
    N17    O18       2.38301      .   S
    Zr5    O18       3.49614      .   S
    N17    O19       2.38035      .   S
    Zr1    O19       3.48627  1_565   S
    N17    O20       2.38291      .   S
    Zr7    O20       3.49434      .   S
    N17    O21       2.37955      .   S
    Zr3    O21       3.48553  1_565   S
    N22    O23       2.37795      .   S
    Zr5    O23       3.48319  1_554   S
    N22    O24       2.37232      .   S
    Zr8    O24       3.47590  1_464   S
    N22    O25       2.37681      .   S
    Zr6    O25       3.48345  1_454   S
    N22    O26       2.37298      .   S
    Zr11   O26       3.47687  1_564   S
    N27    O28       2.35126      .   S
    Zr11   O28       3.42450      .   S
    N27    O29       2.36669      .   S
    Zr7    O29       3.45621      .   S
    N27    O30       2.35112      .   S
    Zr9    O30       3.42497      .   S
    N27    O31       2.36665      .   S
    Zr5    O31       3.45608      .   S
    N32    O33       2.37783      .   S
    Zr4    O33       3.48333  1_554   S
    N32    O34       2.37298      .   S
    Zr10   O34       3.47686  1_564   S
    N32    O35       2.37219      .   S
    Zr9    O35       3.47559  1_564   S
    N32    O36       2.37682      .   S
    Zr7    O36       3.48355  1_554   S
    N37    O38       2.37770      .   S
    Zr2    O38       3.48017      .   S
    N37    O39       2.37053      .   S
    Zr4    O39       3.46299  1_554   S
    N37    O40       2.37834      .   S
    Zr1    O40       3.48113      .   S
    N37    O41       2.37086      .   S
    Zr7    O41       3.46317  1_554   S
    N42    O43       2.36665      .   S
    Zr4    O43       3.45606      .   S
    N42    O44       2.35117      .   S
    Zr8    O44       3.42441      .   S
    N42    O45       2.36670      .   S
    Zr6    O45       3.45621      .   S
    N42    O46       2.35126      .   S
    Zr10   O46       3.42451      .   S
    N47    O48       2.37094      .   S
    Zr8    O48       3.47094  1_564   S
    N47    O49       2.36954      .   S
    Zr2    O49       3.46534  1_565   S
    N47    O50       2.36922      .   S
    Zr0    O50       3.46472  1_665   S
    N47    O51       2.37122      .   S
    Zr10   O51       3.47196  1_564   S
    N52    O53       0.66269      .   S
    Zr4    O53       1.70782  1_554   S
    N52    O54       0.66419      .   S
    Zr6    O54       1.71067  1_554   S
    N55    O56       2.37954      .   S
    Zr2    O56       3.48552  1_565   S
    N55    O57       2.38301      .   S
    Zr4    O57       3.49613      .   S
    N55    O58       2.38036      .   S
    Zr0    O58       3.48627  1_665   S
    N55    O59       2.38291      .   S
    Zr6    O59       3.49434      .   S
    N60    O61       2.36904      .   S
    Zr2    O61       3.46402      .   S
    N60    O62       2.35271      .   S
    Zr10   O62       3.42762      .   S
    N60    O63       2.36877      .   S
    Zr1    O63       3.46341      .   S
    N60    O64       2.35323      .   S
    Zr9    O64       3.42853      .   S
    N65    O66       2.37086      .   S
    Zr6    O66       3.46311  1_454   S
    N65    O67       2.37056      .   S
    Zr5    O67       3.46301  1_554   S
    N65    O68       2.37829      .   S
    Zr0    O68       3.48102      .   S
    N65    O69       2.37766      .   S
    Zr3    O69       3.48014      .   S
    N70    O71       0.65998      .   S
    Zr10   O71       1.70451  1_565   S
    N70    O72       0.66023      .   S
    Zr8    O72       1.70508  1_565   S
    N73    O74       0.66464      .   S
    Zr6    O74       1.71129  1_455   S
    N73    O75       0.66592      .   S
    Zr5    O75       1.71371      .   S
    N76    O77       2.35004      .   S
    Zr11   O77       3.42497      .   S
    N76    O78       2.37169      .   S
    Zr3    O78       3.46665      .   S
    N76    O79       2.37141      .   S
    Zr0    O79       3.46598      .   S
    N76    O80       2.35091      .   S
    Zr8    O80       3.42687  1_455   S
    N81    O82       0.66375      .   S
    Zr2    O82       1.71097  1_565   S
    N81    O83       0.66382      .   S
    Zr1    O83       1.71108  1_565   S
    N84    O85       0.66042      .   S
    Zr9    O85       1.70449  1_554   S
    N84    O86       0.66038      .   S
    Zr10   O86       1.70461  1_554   S
    N87    O88       0.66471      .   S
    Zr7    O88       1.71154      .   S
    N87    O89       0.66592      .   S
    Zr4    O89       1.71372      .   S
    N90    O91       0.66374      .   S
    Zr0    O91       1.71082  1_565   S
    N90    O92       0.66375      .   S
    Zr3    O92       1.71097  1_565   S
    N93    O94       0.66390      .   S
    Zr3    O94       1.71045      .   S
    N93    O95       0.66405      .   S
    Zr1    O95       1.71074      .   S
    N96    O97       0.66008      .   S
    Zr9    O97       1.70459  1_565   S
    N96    O98       0.65998      .   S
    Zr11   O98       1.70452  1_565   S
    N99    O100      0.66007      .   S
    Zr8    O100      1.70357  1_454   S
    N99    O101      0.66038      .   S
    Zr11   O101      1.70460  1_554   S
    N102   O103      0.66390      .   S
    Zr2    O103      1.71046      .   S
    N102   O104      0.66406      .   S
    Zr0    O104      1.71075  1_655   S
    N105   O106      0.66269      .   S
    Zr5    O106      1.70783  1_554   S
    N105   O107      0.66419      .   S
    Zr7    O107      1.71066  1_554   S
