# CIF file generated by openbabel 2.4.90, see http://openbabel.sf.net
data_I
_chemical_name_common ''
_cell_length_a 9.898
_cell_length_b 16.558
_cell_length_c 12.187
_cell_angle_alpha 89.965
_cell_angle_beta 89.971
_cell_angle_gamma 91.592
_space_group_name_H-M_alt 'P 1'
_space_group_name_Hall 'P 1'
loop_
    _symmetry_equiv_pos_as_xyz
    x,y,z
loop_
    _atom_site_label
    _atom_site_type_symbol
    _atom_site_fract_x
    _atom_site_fract_y
    _atom_site_fract_z
    _atom_site_occupancy
    Lv0     Lv   0.99497   0.88369   0.01827   1.000
    Lv1     Lv   0.00498   0.61627   0.98170   1.000
    Lv2     Lv   0.00499   0.11628   0.98170   1.000
    Lv3     Lv   0.99498   0.38370   0.01827   1.000
    Lv4     Lv   0.49512   0.38377   0.48173   1.000
    Lv5     Lv   0.50485   0.11621   0.51823   1.000
    Lv6     Lv   0.50496   0.61627   0.98170   1.000
    Lv7     Lv   0.49499   0.88369   0.01827   1.000
    Lv8     Lv   0.50497   0.11628   0.98170   1.000
    Lv9     Lv   0.49499   0.38370   0.01827   1.000
    Lv10    Lv   0.99509   0.88376   0.48173   1.000
    Lv11    Lv   0.00486   0.61620   0.51823   1.000
    Lv12    Lv   0.99510   0.38377   0.48173   1.000
    Lv13    Lv   0.00486   0.11621   0.51823   1.000
    Lv14    Lv   0.49511   0.88375   0.48173   1.000
    Lv15    Lv   0.50484   0.61620   0.51823   1.000
