# CIF file generated by openbabel 2.4.90, see http://openbabel.sf.net
data_I
_chemical_name_common ''
_cell_length_a 9.898
_cell_length_b 16.558
_cell_length_c 12.187
_cell_angle_alpha 89.965
_cell_angle_beta 89.971
_cell_angle_gamma 91.592
_space_group_name_H-M_alt 'P 1'
_space_group_name_Hall 'P 1'
loop_
    _symmetry_equiv_pos_as_xyz
    x,y,z
loop_
    _atom_site_label
    _atom_site_type_symbol
    _atom_site_fract_x
    _atom_site_fract_y
    _atom_site_fract_z
    _atom_site_occupancy
    H0      H    0.35140   0.27157   0.52418   1.000
    H1      H    0.35140   0.77155   0.52418   1.000
    H2      H    0.85138   0.27157   0.52418   1.000
    H3      H    0.85138   0.77155   0.52418   1.000
    H4      H    0.48607   0.28222   0.61858   1.000
    H5      H    0.48606   0.78221   0.61858   1.000
    H6      H    0.98605   0.28222   0.61858   1.000
    H7      H    0.98605   0.78220   0.61858   1.000
    H8      H    0.14852   0.22845   0.02437   1.000
    H9      H    0.14852   0.72844   0.02436   1.000
    H10     H    0.64850   0.22845   0.02436   1.000
    H11     H    0.64850   0.72844   0.02437   1.000
    H12     H    0.01358   0.21772   0.11863   1.000
    H13     H    0.01358   0.71770   0.11863   1.000
    H14     H    0.51357   0.21772   0.11863   1.000
    H15     H    0.51356   0.71770   0.11863   1.000
    H16     H    0.14858   0.22842   0.47579   1.000
    H17     H    0.14857   0.72840   0.47578   1.000
    H18     H    0.64856   0.22842   0.47578   1.000
    H19     H    0.64855   0.72840   0.47579   1.000
    H20     H    0.01391   0.21776   0.38139   1.000
    H21     H    0.01390   0.71775   0.38130   1.000
    H22     H    0.51389   0.21776   0.38139   1.000
    H23     H    0.51389   0.71775   0.38139   1.000
    H24     H    0.35146   0.27153   0.97560   1.000
    H25     H    0.35145   0.77152   0.97560   1.000
    H26     H    0.85144   0.27153   0.97560   1.000
    H27     H    0.85144   0.77152   0.97560   1.000
    H28     H    0.48640   0.28227   0.88133   1.000
    H29     H    0.48639   0.78225   0.88130   1.000
    H30     H    0.98638   0.28227   0.88130   1.000
    H31     H    0.98638   0.78225   0.88133   1.000
    C32     C    0.46114   0.28238   0.53064   1.000
    C33     C    0.46114   0.78237   0.53065   1.000
    C34     C    0.96112   0.28238   0.53065   1.000
    C35     C    0.96112   0.78237   0.53064   1.000
    C36     C    0.03877   0.21760   0.03073   1.000
    C37     C    0.03876   0.71759   0.03073   1.000
    C38     C    0.53875   0.21760   0.03073   1.000
    C39     C    0.53875   0.71759   0.03073   1.000
    C40     C    0.03884   0.21760   0.46932   1.000
    C41     C    0.03883   0.71759   0.46932   1.000
    C42     C    0.53882   0.21760   0.46932   1.000
    C43     C    0.53881   0.71759   0.46932   1.000
    C44     C    0.46121   0.28238   0.96923   1.000
    C45     C    0.46120   0.78237   0.96924   1.000
    C46     C    0.96119   0.28238   0.96924   1.000
    C47     C    0.96119   0.78237   0.96923   1.000
    O48     O    0.39936   0.44058   0.54057   1.000
    O49     O    0.39936   0.94056   0.54050   1.000
    O50     O    0.89935   0.44058   0.54050   1.000
    O51     O    0.89934   0.94056   0.54057   1.000
    O52     O    0.14462   0.40368   0.50383   1.000
    O53     O    0.14462   0.90367   0.50383   1.000
    O54     O    0.64460   0.40368   0.50383   1.000
    O55     O    0.64460   0.90367   0.50383   1.000
    O56     O    0.46906   0.38019   0.35445   1.000
    O57     O    0.46905   0.88017   0.35445   1.000
    O58     O    0.96904   0.38018   0.35445   1.000
    O59     O    0.96904   0.88017   0.35445   1.000
    O60     O    0.10060   0.05939   0.04050   1.000
    O61     O    0.10059   0.55938   0.04058   1.000
    O62     O    0.60058   0.05939   0.04058   1.000
    O63     O    0.60057   0.55938   0.04050   1.000
    O64     O    0.35543   0.09629   0.00364   1.000
    O65     O    0.35543   0.59627   0.00360   1.000
    O66     O    0.85542   0.09629   0.00363   1.000
    O67     O    0.85541   0.59627   0.00364   1.000
    O68     O    0.03153   0.12017   0.85446   1.000
    O69     O    0.03151   0.62016   0.85446   1.000
    O70     O    0.53150   0.12017   0.85446   1.000
    O71     O    0.53150   0.62016   0.85446   1.000
    O72     O    0.10062   0.05941   0.45939   1.000
    O73     O    0.10061   0.55939   0.45939   1.000
    O74     O    0.60060   0.05941   0.45939   1.000
    O75     O    0.60059   0.55939   0.45939   1.000
    O76     O    0.35536   0.09630   0.49614   1.000
    O77     O    0.35535   0.59629   0.49614   1.000
    O78     O    0.85534   0.09630   0.49614   1.000
    O79     O    0.85533   0.59629   0.49614   1.000
    O80     O    0.03092   0.11979   0.64552   1.000
    O81     O    0.03092   0.61979   0.64550   1.000
    O82     O    0.53090   0.11980   0.64550   1.000
    O83     O    0.53089   0.61978   0.64552   1.000
    O84     O    0.39938   0.44059   0.95938   1.000
    O85     O    0.39937   0.94058   0.95938   1.000
    O86     O    0.89936   0.44059   0.95938   1.000
    O87     O    0.89936   0.94058   0.95938   1.000
    O88     O    0.14455   0.40370   0.99633   1.000
    O89     O    0.14454   0.90368   0.99633   1.000
    O90     O    0.64453   0.40370   0.99633   1.000
    O91     O    0.64452   0.90368   0.99633   1.000
    O92     O    0.46845   0.37981   0.14550   1.000
    O93     O    0.46846   0.87980   0.14550   1.000
    O94     O    0.96844   0.37982   0.14550   1.000
    O95     O    0.96843   0.87980   0.14550   1.000
loop_
    _geom_bond_atom_site_label_1
    _geom_bond_atom_site_label_2
    _geom_bond_distance
    _geom_bond_site_symmetry_2
    _ccdc_geom_bond_type
    H9     C37       1.09884      .   S
    H10    C38       1.09884      .   S
    H8     C36       1.09883      .   S
    H11    C39       1.09883      .   S
    C36    H12       1.09975      .   S
    C36    C46       1.53198  1_454   S
    C37    H13       1.09975      .   S
    C37    C47       1.53204  1_454   S
    C39    H15       1.09976      .   S
    C39    C45       1.53180  1_554   S
    C38    H14       1.09975      .   S
    C38    C44       1.53186  1_554   S
    H21    C41       1.10085      .   S
    H20    C40       1.09978      .   S
    H22    C42       1.09978      .   S
    H23    C43       1.09978      .   S
    C43    H19       1.09883      .   S
    C43    C33       1.53185      .   S
    C41    H17       1.09882      .   S
    C41    C35       1.53196  1_455   S
    C42    H18       1.09882      .   S
    C42    C32       1.53179      .   S
    C40    H16       1.09884      .   S
    C40    C34       1.53203  1_455   S
    H0     C32       1.09882      .   S
    H1     C33       1.09884      .   S
    H2     C34       1.09884      .   S
    H3     C35       1.09883      .   S
    C32    H4        1.09990      .   S
    C35    H7        1.09990      .   S
    C33    H5        1.09978      .   S
    C34    H6        1.09978      .   S
    H30    C46       1.10023      .   S
    H29    C45       1.10023      .   S
    H28    C44       1.09975      .   S
    H31    C47       1.09976      .   S
    C44    H24       1.09884      .   S
    C47    H27       1.09884      .   S
    C45    H25       1.09883      .   S
    C46    H26       1.09883      .   S
