# CIF file generated by openbabel 2.4.90, see http://openbabel.sf.net
data_I
_chemical_name_common ''
_cell_length_a 9.898
_cell_length_b 16.558
_cell_length_c 12.187
_cell_angle_alpha 89.965
_cell_angle_beta 89.971
_cell_angle_gamma 91.592
_space_group_name_H-M_alt 'P 1'
_space_group_name_Hall 'P 1'
loop_
    _symmetry_equiv_pos_as_xyz
    x,y,z
loop_
    _atom_site_label
    _atom_site_type_symbol
    _atom_site_fract_x
    _atom_site_fract_y
    _atom_site_fract_z
    _atom_site_occupancy
    Al0     Al   0.38229   0.93082   0.24998   1.000
    Al1     Al   0.88228   0.43084   0.24998   1.000
    Al2     Al   0.88227   0.93082   0.24998   1.000
    Al3     Al   0.11768   0.06915   0.74999   1.000
    Al4     Al   0.11768   0.56913   0.74998   1.000
    Al5     Al   0.61767   0.06915   0.74998   1.000
    Al6     Al   0.61766   0.56913   0.74999   1.000
    Al7     Al   0.24999   1.00000   0.49998   1.000
    Al8     Al   0.24999   0.49998   0.49998   1.000
    Al9     Al   0.74997   1.00000   0.49998   1.000
    Al10    Al   0.74997   0.49998   0.49998   1.000
    Al11    Al   0.24999   0.00000   0.00000   1.000
    Al12    Al   0.24999   0.49999   0.00000   1.000
    Al13    Al   0.74997   0.00000   0.99999   1.000
    Al14    Al   0.74997   0.49998   0.99997   1.000
    Al15    Al   0.38229   0.43084   0.24998   1.000
    F16     F    0.28379   0.48277   0.34695   1.000
    F17     F    0.28378   0.98276   0.34695   1.000
    F18     F    0.78377   0.48277   0.34695   1.000
    F19     F    0.78377   0.98276   0.34695   1.000
    F20     F    0.21619   0.01720   0.84694   1.000
    F21     F    0.21618   0.51719   0.84694   1.000
    F22     F    0.71617   0.01720   0.84694   1.000
    F23     F    0.71616   0.51719   0.84694   1.000
    F24     F    0.21619   0.01721   0.65301   1.000
    F25     F    0.21618   0.51720   0.65301   1.000
    F26     F    0.71617   0.01721   0.65301   1.000
    F27     F    0.71617   0.51720   0.65301   1.000
    F28     F    0.28379   0.48279   0.15302   1.000
    F29     F    0.28379   0.98277   0.15302   1.000
    F30     F    0.78377   0.48278   0.15302   1.000
    F31     F    0.78377   0.98277   0.15302   1.000
loop_
    _geom_bond_atom_site_label_1
    _geom_bond_atom_site_label_2
    _geom_bond_distance
    _geom_bond_site_symmetry_2
    _ccdc_geom_bond_type
    F28    Al15      1.77013      .   S
    F29    Al0       1.77012      .   S
    F30    Al1       1.77012      .   S
    F31    Al2       1.77013      .   S
    Al0    F17       1.77014      .   S
    Al15   F16       1.77015      .   S
    Al1    F18       1.77016      .   S
    Al2    F19       1.77016      .   S
    F24    Al3       1.77023      .   S
    F25    Al4       1.77014      .   S
    F26    Al5       1.77016      .   S
    F27    Al6       1.77023      .   S
    Al4    F21       1.77012      .   S
    Al5    F22       1.77014      .   S
    Al6    F23       1.77004      .   S
    Al3    F20       1.77005      .   S
