# CIF file generated by openbabel 2.4.90, see http://openbabel.sf.net
data_I
_chemical_name_common ''
_cell_length_a 9.898
_cell_length_b 16.558
_cell_length_c 12.187
_cell_angle_alpha 89.965
_cell_angle_beta 89.971
_cell_angle_gamma 91.592
_space_group_name_H-M_alt 'P 1'
_space_group_name_Hall 'P 1'
loop_
    _symmetry_equiv_pos_as_xyz
    x,y,z
loop_
    _atom_site_label
    _atom_site_type_symbol
    _atom_site_fract_x
    _atom_site_fract_y
    _atom_site_fract_z
    _atom_site_occupancy
    N0      N    0.99497   0.88369   0.01827   1.000
    N1      N    0.00498   0.61627   0.98170   1.000
    O2      O    0.99325   0.80417   0.00299   1.000
    N3      N    0.00499   0.11628   0.98170   1.000
    N4      N    0.99498   0.38370   0.01827   1.000
    O5      O    0.00671   0.19580   0.99697   1.000
    N6      N    0.49512   0.38377   0.48173   1.000
    N7      N    0.50485   0.11621   0.51823   1.000
    O8      O    0.50666   0.19578   0.50299   1.000
    N9      N    0.50496   0.61627   0.98170   1.000
    N10     N    0.49499   0.88369   0.01827   1.000
    O11     O    0.49326   0.80417   0.00300   1.000
    N12     N    0.50497   0.11628   0.98170   1.000
    N13     N    0.49499   0.38370   0.01827   1.000
    O14     O    0.49326   0.30418   0.00299   1.000
    N15     N    0.99509   0.88376   0.48173   1.000
    N16     N    0.00486   0.61620   0.51823   1.000
    O17     O    0.00666   0.69576   0.50298   1.000
    N18     N    0.99510   0.38377   0.48173   1.000
    N19     N    0.00486   0.11621   0.51823   1.000
    O20     O    0.00667   0.19578   0.50299   1.000
    N21     N    0.49511   0.88375   0.48173   1.000
    N22     N    0.50484   0.61620   0.51823   1.000
    O23     O    0.50665   0.69576   0.50299   1.000
    Zr24    Zr   0.18335   0.03452   0.74998   1.000
    O25     O    0.11821   0.07097   0.78916   1.000
    O26     O    0.11798   0.07083   0.71081   1.000
    Zr27    Zr   0.81660   0.96545   0.24998   1.000
    O28     O    0.88198   0.92914   0.28916   1.000
    O29     O    0.88175   0.92900   0.21080   1.000
    Zr30    Zr   0.24999   0.00000   0.00000   1.000
    O31     O    0.28953   0.03611   0.00136   1.000
    O32     O    0.30601   0.97772   0.98477   1.000
    O33     O    0.19397   0.02227   0.01519   1.000
    O34     O    0.21045   0.96388   0.99862   1.000
    Zr35    Zr   0.74997   0.00000   0.99999   1.000
    O36     O    0.80599   0.97772   0.98476   1.000
    O37     O    0.78952   0.03611   0.00135   1.000
    O38     O    0.69395   0.02227   0.01521   1.000
    O39     O    0.71043   0.96388   0.99862   1.000
    Zr40    Zr   0.31662   0.46546   0.24998   1.000
    O41     O    0.38177   0.42902   0.21080   1.000
    O42     O    0.38200   0.42916   0.28916   1.000
    Zr43    Zr   0.31662   0.96545   0.24998   1.000
    O44     O    0.38199   0.92914   0.28916   1.000
    O45     O    0.38177   0.92900   0.21080   1.000
    Zr46    Zr   0.74997   0.49998   0.49998   1.000
    O47     O    0.69395   0.52226   0.48476   1.000
    O48     O    0.71046   0.46387   0.50142   1.000
    O49     O    0.80599   0.47771   0.51517   1.000
    O50     O    0.78948   0.53610   0.49854   1.000
    Zr51    Zr   0.24999   0.49999   0.00000   1.000
    O52     O    0.28953   0.53609   0.00135   1.000
    O53     O    0.21045   0.46388   0.99862   1.000
    O54     O    0.19396   0.52226   0.01522   1.000
    O55     O    0.30601   0.47771   0.98477   1.000
    Zr56    Zr   0.18335   0.53451   0.74998   1.000
    O57     O    0.11798   0.57081   0.71080   1.000
    O58     O    0.11820   0.57095   0.78916   1.000
    Zr59    Zr   0.81661   0.46546   0.24998   1.000
    O60     O    0.88175   0.42902   0.21080   1.000
    O61     O    0.88198   0.42915   0.28916   1.000
    Zr62    Zr   0.68333   0.53451   0.74998   1.000
    O63     O    0.61819   0.57095   0.78916   1.000
    O64     O    0.61796   0.57081   0.71081   1.000
    Zr65    Zr   0.68334   0.03452   0.74998   1.000
    O66     O    0.61819   0.07097   0.78916   1.000
    O67     O    0.61797   0.07083   0.71080   1.000
    Zr68    Zr   0.74997   0.49998   0.99997   1.000
    O69     O    0.80599   0.47771   0.98475   1.000
    O70     O    0.78951   0.53609   0.00135   1.000
    O71     O    0.71043   0.46388   0.99860   1.000
    O72     O    0.69395   0.52226   0.01517   1.000
    Zr73    Zr   0.24999   0.49998   0.49998   1.000
    O74     O    0.30600   0.47771   0.51520   1.000
    O75     O    0.21047   0.46387   0.50142   1.000
    O76     O    0.28950   0.53610   0.49854   1.000
    O77     O    0.19397   0.52226   0.48476   1.000
    Zr78    Zr   0.74997   1.00000   0.49998   1.000
    O79     O    0.69396   0.02228   0.48476   1.000
    O80     O    0.71046   0.96387   0.50142   1.000
    O81     O    0.80599   0.97771   0.51520   1.000
    O82     O    0.78949   0.03611   0.49854   1.000
    Zr83    Zr   0.24999   1.00000   0.49998   1.000
    O84     O    0.28950   0.03611   0.49854   1.000
    O85     O    0.19398   0.02228   0.48476   1.000
    O86     O    0.30600   0.97771   0.51517   1.000
    O87     O    0.21048   0.96387   0.50142   1.000
loop_
    _geom_bond_atom_site_label_1
    _geom_bond_atom_site_label_2
    _geom_bond_distance
    _geom_bond_site_symmetry_2
    _ccdc_geom_bond_type
    N1     O2        3.12761  1_456   S
    N0     O2        1.32955      .   S
    N4     O5        3.12763  1_654   S
    N3     O5        1.32955      .   S
    N6     O8        3.12867      .   S
    N7     O8        1.32994      .   S
    N9     O11       3.12759  1_556   S
    N10    O11       1.32956      .   S
    N12    O14       3.12760  1_556   S
    N13    O14       1.32956      .   S
    N15    O17       3.12867  1_655   S
    N16    O17       1.32995      .   S
    N18    O20       3.12868  1_655   S
    N19    O20       1.32995      .   S
    N21    O23       3.12865      .   S
    N22    O23       1.32994      .   S
    Zr24   O25       1.01472      .   S
    N3     O25       2.71495      .   S
    Zr24   O26       1.01467      .   S
    N19    O26       2.71548      .   S
    Zr27   O28       1.01469      .   S
    N15    O28       2.71541      .   S
    Zr27   O29       1.01473      .   S
    N0     O29       2.71488      .   S
    Zr30   O31       0.70563      .   S
    N12    O31       2.49169  1_556   S
    Zr30   O32       0.69956  1_544   S
    N10    O32       2.50025  1_554   S
    Zr30   O33       0.69933      .   S
    N3     O33       2.50005  1_556   S
    Zr30   O34       0.70581  1_544   S
    N0     O34       2.49219  1_654   S
    Zr35   O36       0.69954  1_545   S
    N0     O36       2.50025  1_554   S
    Zr35   O37       0.70563  1_556   S
    N3     O37       2.49198  1_456   S
    Zr35   O38       0.69945  1_556   S
    N12    O38       2.50011  1_556   S
    Zr35   O39       0.70581  1_545   S
    N10    O39       2.49189  1_554   S
    Zr40   O41       1.01473      .   S
    N13    O41       2.71488      .   S
    Zr40   O42       1.01469      .   S
    N6     O42       2.71541      .   S
    Zr43   O44       1.01469      .   S
    N21    O44       2.71542      .   S
    Zr43   O45       1.01473      .   S
    N10    O45       2.71488      .   S
    Zr46   O47       0.69949      .   S
    N22    O47       2.50024      .   S
    Zr46   O48       0.70555      .   S
    N6     O48       2.49071      .   S
    Zr46   O49       0.69940      .   S
    N18    O49       2.50020      .   S
    Zr46   O50       0.70555      .   S
    N16    O50       2.49100  1_455   S
    Zr51   O52       0.70562      .   S
    N9     O52       2.49169  1_556   S
    Zr51   O53       0.70565  1_554   S
    N4     O53       2.49198  1_654   S
    Zr51   O54       0.69944      .   S
    N1     O54       2.50012  1_556   S
    Zr51   O55       0.69950  1_554   S
    N13    O55       2.50011  1_554   S
    Zr56   O57       1.01471      .   S
    N16    O57       2.71537      .   S
    Zr56   O58       1.01472      .   S
    N1     O58       2.71498      .   S
    Zr59   O60       1.01473      .   S
    N4     O60       2.71487      .   S
    Zr59   O61       1.01469      .   S
    N18    O61       2.71541      .   S
    Zr62   O63       1.01472      .   S
    N9     O63       2.71495      .   S
    Zr62   O64       1.01467      .   S
    N22    O64       2.71548      .   S
    Zr65   O66       1.01473      .   S
    N12    O66       2.71498      .   S
    Zr65   O67       1.01471      .   S
    N7     O67       2.71537      .   S
    Zr68   O69       0.69945      .   S
    N4     O69       2.50013  1_554   S
    Zr68   O70       0.70565  1_556   S
    N1     O70       2.49198  1_456   S
    Zr68   O71       0.70563      .   S
    N13    O71       2.49170  1_554   S
    Zr68   O72       0.69938  1_556   S
    N9     O72       2.50004  1_556   S
    Zr73   O74       0.69948      .   S
    N6     O74       2.50025      .   S
    Zr73   O75       0.70555      .   S
    N18    O75       2.49101  1_655   S
    Zr73   O76       0.70556      .   S
    N22    O76       2.49070      .   S
    Zr73   O77       0.69949      .   S
    N16    O77       2.50025      .   S
    Zr78   O79       0.69949  1_565   S
    N7     O79       2.50024      .   S
    Zr78   O80       0.70571      .   S
    N21    O80       2.49093      .   S
    Zr78   O81       0.69955      .   S
    N15    O81       2.50038      .   S
    Zr78   O82       0.70555  1_565   S
    N19    O82       2.49099  1_455   S
    Zr83   O84       0.70556  1_565   S
    N7     O84       2.49071      .   S
    Zr83   O85       0.69949  1_565   S
    N19    O85       2.50024      .   S
    Zr83   O86       0.69946      .   S
    N21    O86       2.50033      .   S
    Zr83   O87       0.70571      .   S
    N15    O87       2.49120  1_655   S
