# CIF file generated by openbabel 2.4.90, see http://openbabel.sf.net
data_I
_chemical_name_common ''
_cell_length_a 9.898
_cell_length_b 16.558
_cell_length_c 12.187
_cell_angle_alpha 89.965
_cell_angle_beta 89.971
_cell_angle_gamma 91.592
_space_group_name_H-M_alt 'P 1'
_space_group_name_Hall 'P 1'
loop_
    _symmetry_equiv_pos_as_xyz
    x,y,z
loop_
    _atom_site_label
    _atom_site_type_symbol
    _atom_site_fract_x
    _atom_site_fract_y
    _atom_site_fract_z
    _atom_site_occupancy
    C0      C    0.38229   0.43084   0.24998   1.000
    C1      C    0.38229   0.93082   0.24998   1.000
    C2      C    0.88228   0.43084   0.24998   1.000
    C3      C    0.88227   0.93082   0.24998   1.000
    C4      C    0.11768   0.06915   0.74999   1.000
    C5      C    0.11768   0.56913   0.74998   1.000
    C6      C    0.61767   0.06915   0.74998   1.000
    C7      C    0.61766   0.56913   0.74999   1.000
    C8      C    0.24999   1.00000   0.49998   1.000
    C9      C    0.24999   0.49998   0.49998   1.000
    C10     C    0.74997   1.00000   0.49998   1.000
    C11     C    0.74997   0.49998   0.49998   1.000
    C12     C    0.24999   0.00000   0.00000   1.000
    C13     C    0.24999   0.49999   0.00000   1.000
    C14     C    0.74997   0.00000   0.99999   1.000
    C15     C    0.74997   0.49998   0.99997   1.000
    C16     C    0.49512   0.38377   0.48173   1.000
    C17     C    0.49511   0.88375   0.48173   1.000
    C18     C    0.99510   0.38377   0.48173   1.000
    C19     C    0.99509   0.88376   0.48173   1.000
    C20     C    0.00499   0.11628   0.98170   1.000
    C21     C    0.00498   0.61627   0.98170   1.000
    C22     C    0.50497   0.11628   0.98170   1.000
    C23     C    0.50496   0.61627   0.98170   1.000
    C24     C    0.00486   0.11621   0.51823   1.000
    C25     C    0.00486   0.61620   0.51823   1.000
    C26     C    0.50485   0.11621   0.51823   1.000
    C27     C    0.50484   0.61620   0.51823   1.000
    C28     C    0.49499   0.38370   0.01827   1.000
    C29     C    0.49499   0.88369   0.01827   1.000
    C30     C    0.99498   0.38370   0.01827   1.000
    C31     C    0.99497   0.88369   0.01827   1.000
    C32     C    0.35140   0.27157   0.52418   1.000
    C33     C    0.35140   0.77155   0.52418   1.000
    C34     C    0.85138   0.27157   0.52418   1.000
    C35     C    0.85138   0.77155   0.52418   1.000
    C36     C    0.48607   0.28222   0.61858   1.000
    C37     C    0.48606   0.78221   0.61858   1.000
    C38     C    0.98605   0.28222   0.61858   1.000
    C39     C    0.98605   0.78220   0.61858   1.000
    C40     C    0.14852   0.22845   0.02437   1.000
    C41     C    0.14852   0.72844   0.02436   1.000
    C42     C    0.64850   0.22845   0.02436   1.000
    C43     C    0.64850   0.72844   0.02437   1.000
    C44     C    0.01358   0.21772   0.11863   1.000
    C45     C    0.01358   0.71770   0.11863   1.000
    C46     C    0.51357   0.21772   0.11863   1.000
    C47     C    0.51356   0.71770   0.11863   1.000
    C48     C    0.14858   0.22842   0.47579   1.000
    C49     C    0.14857   0.72840   0.47578   1.000
    C50     C    0.64856   0.22842   0.47578   1.000
    C51     C    0.64855   0.72840   0.47579   1.000
    C52     C    0.01391   0.21776   0.38139   1.000
    C53     C    0.01390   0.71775   0.38130   1.000
    C54     C    0.51389   0.21776   0.38139   1.000
    C55     C    0.51389   0.71775   0.38139   1.000
    C56     C    0.35146   0.27153   0.97560   1.000
    C57     C    0.35145   0.77152   0.97560   1.000
    C58     C    0.85144   0.27153   0.97560   1.000
    C59     C    0.85144   0.77152   0.97560   1.000
    C60     C    0.48640   0.28227   0.88133   1.000
    C61     C    0.48639   0.78225   0.88130   1.000
    C62     C    0.98638   0.28227   0.88130   1.000
    C63     C    0.98638   0.78225   0.88133   1.000
    C64     C    0.46114   0.28238   0.53064   1.000
    C65     C    0.46114   0.78237   0.53065   1.000
    C66     C    0.96112   0.28238   0.53065   1.000
    C67     C    0.96112   0.78237   0.53064   1.000
    C68     C    0.03877   0.21760   0.03073   1.000
    C69     C    0.03876   0.71759   0.03073   1.000
    C70     C    0.53875   0.21760   0.03073   1.000
    C71     C    0.53875   0.71759   0.03073   1.000
    C72     C    0.03884   0.21760   0.46932   1.000
    C73     C    0.03883   0.71759   0.46932   1.000
    C74     C    0.53882   0.21760   0.46932   1.000
    C75     C    0.53881   0.71759   0.46932   1.000
    C76     C    0.46121   0.28238   0.96923   1.000
    C77     C    0.46120   0.78237   0.96924   1.000
    C78     C    0.96119   0.28238   0.96924   1.000
    C79     C    0.96119   0.78237   0.96923   1.000
    C80     C    0.39936   0.44058   0.54057   1.000
    C81     C    0.39936   0.94056   0.54050   1.000
    C82     C    0.89935   0.44058   0.54050   1.000
    C83     C    0.89934   0.94056   0.54057   1.000
    C84     C    0.14462   0.40368   0.50383   1.000
    C85     C    0.14462   0.90367   0.50383   1.000
    C86     C    0.64460   0.40368   0.50383   1.000
    C87     C    0.64460   0.90367   0.50383   1.000
    C88     C    0.46906   0.38019   0.35445   1.000
    C89     C    0.46905   0.88017   0.35445   1.000
    C90     C    0.96904   0.38018   0.35445   1.000
    C91     C    0.96904   0.88017   0.35445   1.000
    C92     C    0.10060   0.05939   0.04050   1.000
    C93     C    0.10059   0.55938   0.04058   1.000
    C94     C    0.60058   0.05939   0.04058   1.000
    C95     C    0.60057   0.55938   0.04050   1.000
    C96     C    0.35543   0.09629   0.00364   1.000
    C97     C    0.35543   0.59627   0.00360   1.000
    C98     C    0.85542   0.09629   0.00363   1.000
    C99     C    0.85541   0.59627   0.00364   1.000
    C100    C    0.03153   0.12017   0.85446   1.000
    C101    C    0.03151   0.62016   0.85446   1.000
    C102    C    0.53150   0.12017   0.85446   1.000
    C103    C    0.53150   0.62016   0.85446   1.000
    C104    C    0.10062   0.05941   0.45939   1.000
    C105    C    0.10061   0.55939   0.45939   1.000
    C106    C    0.60060   0.05941   0.45939   1.000
    C107    C    0.60059   0.55939   0.45939   1.000
    C108    C    0.35536   0.09630   0.49614   1.000
    C109    C    0.35535   0.59629   0.49614   1.000
    C110    C    0.85534   0.09630   0.49614   1.000
    C111    C    0.85533   0.59629   0.49614   1.000
    C112    C    0.03092   0.11979   0.64552   1.000
    C113    C    0.03092   0.61979   0.64550   1.000
    C114    C    0.53090   0.11980   0.64550   1.000
    C115    C    0.53089   0.61978   0.64552   1.000
    C116    C    0.39938   0.44059   0.95938   1.000
    C117    C    0.39937   0.94058   0.95938   1.000
    C118    C    0.89936   0.44059   0.95938   1.000
    C119    C    0.89936   0.94058   0.95938   1.000
    C120    C    0.14455   0.40370   0.99633   1.000
    C121    C    0.14454   0.90368   0.99633   1.000
    C122    C    0.64453   0.40370   0.99633   1.000
    C123    C    0.64452   0.90368   0.99633   1.000
    C124    C    0.46845   0.37981   0.14550   1.000
    C125    C    0.46846   0.87980   0.14550   1.000
    C126    C    0.96844   0.37982   0.14550   1.000
    C127    C    0.96843   0.87980   0.14550   1.000
    C128    C    0.28379   0.48277   0.34695   1.000
    C129    C    0.28378   0.98276   0.34695   1.000
    C130    C    0.78377   0.48277   0.34695   1.000
    C131    C    0.78377   0.98276   0.34695   1.000
    C132    C    0.21619   0.01720   0.84694   1.000
    C133    C    0.21618   0.51719   0.84694   1.000
    C134    C    0.71617   0.01720   0.84694   1.000
    C135    C    0.71616   0.51719   0.84694   1.000
    C136    C    0.21619   0.01721   0.65301   1.000
    C137    C    0.21618   0.51720   0.65301   1.000
    C138    C    0.71617   0.01721   0.65301   1.000
    C139    C    0.71617   0.51720   0.65301   1.000
    C140    C    0.28379   0.48279   0.15302   1.000
    C141    C    0.28379   0.98277   0.15302   1.000
    C142    C    0.78377   0.48278   0.15302   1.000
    C143    C    0.78377   0.98277   0.15302   1.000
    O144    O    0.30271   0.54813   0.00180   1.000
    O145    O    0.17529   0.52968   0.02029   1.000
    O146    O    0.32468   0.47029   0.97969   1.000
    O147    O    0.19727   0.45184   0.99816   1.000
    O148    O    0.30271   0.04814   0.00182   1.000
    O149    O    0.17529   0.02969   0.02025   1.000
    O150    O    0.32468   0.97029   0.97969   1.000
    O151    O    0.19727   0.95184   0.99816   1.000
    O152    O    0.43020   0.60627   0.99265   1.000
    O153    O    0.93020   0.10628   0.99266   1.000
    O154    O    0.80270   0.04814   0.00181   1.000
    O155    O    0.43020   0.10628   0.99267   1.000
    O156    O    0.93020   0.60627   0.99267   1.000
    O157    O    0.80269   0.54813   0.00181   1.000
    O158    O    0.98170   0.88174   0.08188   1.000
    O159    O    0.94716   0.91213   0.98882   1.000
    O160    O    0.97808   0.83303   0.99375   1.000
    O161    O    0.06975   0.89369   0.00730   1.000
    O162    O    0.98171   0.38176   0.08188   1.000
    O163    O    0.94717   0.41215   0.98882   1.000
    O164    O    0.97808   0.33304   0.99375   1.000
    O165    O    0.06976   0.39370   0.00730   1.000
    O166    O    0.48172   0.88175   0.08188   1.000
    O167    O    0.44718   0.91213   0.98882   1.000
    O168    O    0.47810   0.83303   0.99375   1.000
    O169    O    0.56976   0.89369   0.00730   1.000
    O170    O    0.48172   0.38176   0.08188   1.000
    O171    O    0.44719   0.41215   0.98882   1.000
    O172    O    0.47810   0.33304   0.99375   1.000
    O173    O    0.56976   0.39370   0.00730   1.000
    O174    O    0.09364   0.72301   0.02754   1.000
    O175    O    0.59363   0.22303   0.02754   1.000
    O176    O    0.09364   0.22303   0.02755   1.000
    O177    O    0.59362   0.72301   0.02755   1.000
    O178    O    0.02617   0.21766   0.07468   1.000
    O179    O    0.99998   0.24999   0.99998   1.000
    O180    O    0.02188   0.16694   0.00621   1.000
    O181    O    0.02617   0.71765   0.07468   1.000
    O182    O    0.99997   0.74998   0.99998   1.000
    O183    O    0.02187   0.66693   0.00621   1.000
    O184    O    0.52615   0.71765   0.07468   1.000
    O185    O    0.49998   0.74998   0.99998   1.000
    O186    O    0.52186   0.66693   0.00621   1.000
    O187    O    0.52616   0.21766   0.07468   1.000
    O188    O    0.49998   0.24999   0.99998   1.000
    O189    O    0.52186   0.16694   0.00621   1.000
    O190    O    0.55277   0.58782   0.01110   1.000
    O191    O    0.67527   0.52968   0.02024   1.000
    O192    O    0.05279   0.08783   0.01110   1.000
    O193    O    0.05279   0.58782   0.01114   1.000
    O194    O    0.55277   0.08783   0.01114   1.000
    O195    O    0.67528   0.02969   0.02028   1.000
    O196    O    0.42537   0.40532   0.19774   1.000
    O197    O    0.42537   0.90531   0.19774   1.000
    O198    O    0.92536   0.40533   0.19774   1.000
    O199    O    0.92535   0.90531   0.19774   1.000
    O200    O    0.33304   0.45681   0.20150   1.000
    O201    O    0.33304   0.95680   0.20150   1.000
    O202    O    0.83303   0.45681   0.20150   1.000
    O203    O    0.83302   0.95680   0.20150   1.000
    O204    O    0.33304   0.95679   0.29846   1.000
    O205    O    0.42567   0.90550   0.30221   1.000
    O206    O    0.33304   0.45680   0.29846   1.000
    O207    O    0.42568   0.40551   0.30221   1.000
    O208    O    0.83303   0.45680   0.29846   1.000
    O209    O    0.92566   0.40551   0.30221   1.000
    O210    O    0.83302   0.95679   0.29846   1.000
    O211    O    0.92566   0.90550   0.30221   1.000
    O212    O    0.48208   0.88196   0.41809   1.000
    O213    O    0.98207   0.88196   0.41809   1.000
    O214    O    0.98207   0.38198   0.41809   1.000
    O215    O    0.48209   0.38198   0.41809   1.000
    O216    O    0.02637   0.71767   0.42531   1.000
    O217    O    0.02637   0.21768   0.42535   1.000
    O218    O    0.52635   0.21768   0.42535   1.000
    O219    O    0.52635   0.71767   0.42535   1.000
    O220    O    0.17530   0.02970   0.47968   1.000
    O221    O    0.05274   0.08781   0.48881   1.000
    O222    O    0.17530   0.52969   0.47968   1.000
    O223    O    0.05273   0.58780   0.48881   1.000
    O224    O    0.67529   0.02970   0.47968   1.000
    O225    O    0.55272   0.08781   0.48881   1.000
    O226    O    0.67528   0.52969   0.47968   1.000
    O227    O    0.55272   0.58780   0.48881   1.000
    O228    O    0.59368   0.72299   0.47255   1.000
    O229    O    0.52183   0.66689   0.49377   1.000
    O230    O    0.49998   0.74998   0.49998   1.000
    O231    O    0.09370   0.72299   0.47255   1.000
    O232    O    0.02185   0.66689   0.49377   1.000
    O233    O    0.99998   0.74998   0.49998   1.000
    O234    O    0.59369   0.22301   0.47255   1.000
    O235    O    0.52183   0.16691   0.49377   1.000
    O236    O    0.49998   0.24999   0.49998   1.000
    O237    O    0.09371   0.22301   0.47255   1.000
    O238    O    0.02185   0.16691   0.49377   1.000
    O239    O    0.99998   0.24999   0.49998   1.000
    O240    O    0.56986   0.39373   0.49278   1.000
    O241    O    0.47813   0.33308   0.50618   1.000
    O242    O    0.44724   0.41217   0.51115   1.000
    O243    O    0.56985   0.89371   0.49278   1.000
    O244    O    0.47812   0.83306   0.50619   1.000
    O245    O    0.44723   0.91216   0.51111   1.000
    O246    O    0.06986   0.39373   0.49278   1.000
    O247    O    0.97811   0.33308   0.50619   1.000
    O248    O    0.94722   0.41217   0.51111   1.000
    O249    O    0.06986   0.89371   0.49278   1.000
    O250    O    0.97811   0.83306   0.50618   1.000
    O251    O    0.94722   0.91216   0.51115   1.000
    O252    O    0.30267   0.04815   0.49806   1.000
    O253    O    0.43010   0.10626   0.50718   1.000
    O254    O    0.30267   0.54814   0.49806   1.000
    O255    O    0.43009   0.60624   0.50718   1.000
    O256    O    0.80266   0.04815   0.49806   1.000
    O257    O    0.93010   0.10626   0.50718   1.000
    O258    O    0.80265   0.54814   0.49806   1.000
    O259    O    0.93010   0.60624   0.50718   1.000
    O260    O    0.19730   0.95183   0.50190   1.000
    O261    O    0.32467   0.97028   0.52024   1.000
    O262    O    0.69729   0.45183   0.50190   1.000
    O263    O    0.82466   0.47028   0.52024   1.000
    O264    O    0.69729   0.95183   0.50190   1.000
    O265    O    0.82466   0.97028   0.52027   1.000
    O266    O    0.19730   0.45183   0.50190   1.000
    O267    O    0.32467   0.47028   0.52027   1.000
    O268    O    0.51787   0.61799   0.58187   1.000
    O269    O    0.01789   0.11800   0.58187   1.000
    O270    O    0.51788   0.11801   0.58186   1.000
    O271    O    0.01789   0.61799   0.58186   1.000
    O272    O    0.40627   0.27697   0.52741   1.000
    O273    O    0.40627   0.77696   0.52741   1.000
    O274    O    0.90625   0.27697   0.52741   1.000
    O275    O    0.90625   0.77696   0.52741   1.000
    O276    O    0.47360   0.28230   0.57461   1.000
    O277    O    0.97358   0.78229   0.57461   1.000
    O278    O    0.47360   0.78229   0.57461   1.000
    O279    O    0.97359   0.28230   0.57461   1.000
    O280    O    0.07430   0.59446   0.69774   1.000
    O281    O    0.57429   0.09447   0.69774   1.000
    O282    O    0.57428   0.59446   0.69775   1.000
    O283    O    0.07430   0.09447   0.69775   1.000
    O284    O    0.16694   0.04318   0.70150   1.000
    O285    O    0.16693   0.54317   0.70149   1.000
    O286    O    0.66692   0.04318   0.70149   1.000
    O287    O    0.66691   0.54317   0.70150   1.000
    O288    O    0.16693   0.54316   0.79846   1.000
    O289    O    0.07460   0.59464   0.80222   1.000
    O290    O    0.66692   0.04317   0.79846   1.000
    O291    O    0.57458   0.09466   0.80222   1.000
    O292    O    0.66691   0.54316   0.79846   1.000
    O293    O    0.57458   0.59465   0.80222   1.000
    O294    O    0.16694   0.04317   0.79846   1.000
    O295    O    0.07460   0.09466   0.80222   1.000
    O296    O    0.01826   0.11823   0.91808   1.000
    O297    O    0.01825   0.61821   0.91808   1.000
    O298    O    0.51823   0.11822   0.91808   1.000
    O299    O    0.51823   0.61821   0.91808   1.000
    O300    O    0.97379   0.28232   0.92527   1.000
    O301    O    0.47380   0.78231   0.92527   1.000
    O302    O    0.47380   0.28232   0.92528   1.000
    O303    O    0.97378   0.78231   0.92528   1.000
    O304    O    0.82467   0.97029   0.97968   1.000
    O305    O    0.82467   0.47029   0.97967   1.000
    O306    O    0.40633   0.27696   0.97241   1.000
    O307    O    0.90631   0.77694   0.97241   1.000
    O308    O    0.40633   0.77694   0.97242   1.000
    O309    O    0.90632   0.27696   0.97242   1.000
    O310    O    0.69725   0.95184   0.99816   1.000
    O311    O    0.69725   0.45184   0.99815   1.000
loop_
    _geom_bond_atom_site_label_1
    _geom_bond_atom_site_label_2
    _geom_bond_distance
    _geom_bond_site_symmetry_2
    _ccdc_geom_bond_type
    C13    O144      0.94083      .   S
    C97    O144      0.94083      .   S
    C13    O145      0.93258      .   S
    C93    O145      0.93258      .   S
    C13    O146      0.93266  1_554   S
    C116   O146      0.93266      .   S
    C13    O147      0.94087  1_554   S
    C120   O147      0.94087      .   S
    C12    O148      0.94084      .   S
    C96    O148      0.94084      .   S
    C12    O149      0.93244      .   S
    C92    O149      0.93244      .   S
    C12    O150      0.93275  1_544   S
    C117   O150      0.93275      .   S
    C12    O151      0.94108  1_544   S
    C121   O151      0.94108      .   S
    C97    O152      0.76548  1_554   S
    C23    O152      0.76548      .   S
    C98    O153      0.76567  1_554   S
    C20    O153      0.76567  1_455   S
    C98    O154      0.94084      .   S
    C14    O154      0.94084  1_556   S
    C96    O155      0.76551  1_554   S
    C22    O155      0.76551      .   S
    C99    O156      0.76568  1_554   S
    C21    O156      0.76568  1_455   S
    C99    O157      0.94087      .   S
    C15    O157      0.94087  1_556   S
    C31    O158      0.78675      .   S
    C127   O158      0.78675      .   S
    C31    O159      0.76606  1_554   S
    C119   O159      0.76606      .   S
    C31    O160      0.90193  1_554   S
    C79    O160      0.90193      .   S
    C31    O161      0.76569  1_655   S
    C121   O161      0.76569  1_556   S
    C30    O162      0.78674      .   S
    C126   O162      0.78674      .   S
    C30    O163      0.76606  1_554   S
    C118   O163      0.76606      .   S
    C30    O164      0.90192  1_554   S
    C78    O164      0.90192      .   S
    C30    O165      0.76568  1_655   S
    C120   O165      0.76568  1_556   S
    C29    O166      0.78674      .   S
    C125   O166      0.78674      .   S
    C29    O167      0.76606  1_554   S
    C117   O167      0.76606      .   S
    C29    O168      0.90192  1_554   S
    C77    O168      0.90192      .   S
    C29    O169      0.76551      .   S
    C123   O169      0.76551  1_556   S
    C28    O170      0.78675      .   S
    C124   O170      0.78675      .   S
    C28    O171      0.76606  1_554   S
    C116   O171      0.76606      .   S
    C28    O172      0.90194  1_554   S
    C76    O172      0.90194      .   S
    C28    O173      0.76551      .   S
    C122   O173      0.76551  1_556   S
    C41    O174      0.54942      .   S
    C69    O174      0.54942      .   S
    C42    O175      0.54942      .   S
    C70    O175      0.54942      .   S
    C40    O176      0.54941      .   S
    C68    O176      0.54941      .   S
    C43    O177      0.54941      .   S
    C71    O177      0.54941      .   S
    C68    O178      0.54988      .   S
    C44    O178      0.54988      .   S
    C68    O179      0.76599  1_454   S
    C78    O179      0.76599      .   S
    C68    O180      0.90191      .   S
    C20    O180      0.90191  1_556   S
    C69    O181      0.54988      .   S
    C45    O181      0.54988      .   S
    C69    O182      0.76602  1_454   S
    C79    O182      0.76602      .   S
    C69    O183      0.90192      .   S
    C21    O183      0.90192  1_556   S
    C71    O184      0.54988      .   S
    C47    O184      0.54988      .   S
    C71    O185      0.76590  1_554   S
    C77    O185      0.76590      .   S
    C71    O186      0.90191      .   S
    C23    O186      0.90191  1_556   S
    C70    O187      0.54988      .   S
    C46    O187      0.54988      .   S
    C70    O188      0.76593  1_554   S
    C76    O188      0.76593      .   S
    C70    O189      0.90192      .   S
    C22    O189      0.90192  1_556   S
    C95    O190      0.76581      .   S
    C23    O190      0.76581  1_556   S
    C95    O191      0.93251      .   S
    C15    O191      0.93251  1_556   S
    C92    O192      0.76581      .   S
    C20    O192      0.76581  1_556   S
    C93    O193      0.76603      .   S
    C21    O193      0.76603  1_556   S
    C94    O194      0.76603      .   S
    C22    O194      0.76603  1_556   S
    C94    O195      0.93260      .   S
    C14    O195      0.93260  1_556   S
    C124   O196      0.88071      .   S
    C0     O196      0.88071      .   S
    C125   O197      0.88071      .   S
    C1     O197      0.88071      .   S
    C126   O198      0.88071      .   S
    C2     O198      0.88071      .   S
    C127   O199      0.88071      .   S
    C3     O199      0.88071      .   S
    C140   O200      0.88506      .   S
    C0     O200      0.88506      .   S
    C141   O201      0.88506      .   S
    C1     O201      0.88506      .   S
    C142   O202      0.88506      .   S
    C2     O202      0.88506      .   S
    C143   O203      0.88506      .   S
    C3     O203      0.88506      .   S
    C1     O204      0.88507      .   S
    C129   O204      0.88507      .   S
    C1     O205      0.88057      .   S
    C89    O205      0.88057      .   S
    C0     O206      0.88507      .   S
    C128   O206      0.88507      .   S
    C0     O207      0.88058      .   S
    C88    O207      0.88058      .   S
    C2     O208      0.88508      .   S
    C130   O208      0.88508      .   S
    C2     O209      0.88057      .   S
    C90    O209      0.88057      .   S
    C3     O210      0.88508      .   S
    C131   O210      0.88508      .   S
    C3     O211      0.88057      .   S
    C91    O211      0.88057      .   S
    C89    O212      0.78674      .   S
    C17    O212      0.78674      .   S
    C91    O213      0.78673      .   S
    C19    O213      0.78673      .   S
    C90    O214      0.78674      .   S
    C18    O214      0.78674      .   S
    C88    O215      0.78673      .   S
    C16    O215      0.78673      .   S
    C53    O216      0.55043      .   S
    C73    O216      0.55043      .   S
    C52    O217      0.54989      .   S
    C72    O217      0.54989      .   S
    C54    O218      0.54989      .   S
    C74    O218      0.54989      .   S
    C55    O219      0.54989      .   S
    C75    O219      0.54989      .   S
    C104   O220      0.93265      .   S
    C8     O220      0.93265  1_565   S
    C104   O221      0.76597      .   S
    C24    O221      0.76597      .   S
    C105   O222      0.93265      .   S
    C9     O222      0.93265      .   S
    C105   O223      0.76597      .   S
    C25    O223      0.76597      .   S
    C106   O224      0.93265      .   S
    C10    O224      0.93265  1_565   S
    C106   O225      0.76597      .   S
    C26    O225      0.76597      .   S
    C107   O226      0.93265      .   S
    C11    O226      0.93265      .   S
    C107   O227      0.76597      .   S
    C27    O227      0.76597      .   S
    C75    O228      0.54941      .   S
    C51    O228      0.54941      .   S
    C75    O229      0.90193      .   S
    C27    O229      0.90193      .   S
    C75    O230      0.76593      .   S
    C65    O230      0.76593      .   S
    C73    O231      0.54941      .   S
    C49    O231      0.54941      .   S
    C73    O232      0.90193      .   S
    C25    O232      0.90193      .   S
    C73    O233      0.76598  1_455   S
    C67    O233      0.76598      .   S
    C74    O234      0.54941      .   S
    C50    O234      0.54941      .   S
    C74    O235      0.90193      .   S
    C26    O235      0.90193      .   S
    C74    O236      0.76590      .   S
    C64    O236      0.76590      .   S
    C72    O237      0.54942      .   S
    C48    O237      0.54942      .   S
    C72    O238      0.90194      .   S
    C24    O238      0.90194      .   S
    C72    O239      0.76601  1_455   S
    C66    O239      0.76601      .   S
    C16    O240      0.76550      .   S
    C86    O240      0.76550      .   S
    C16    O241      0.90193      .   S
    C64    O241      0.90193      .   S
    C16    O242      0.76597      .   S
    C80    O242      0.76597      .   S
    C17    O243      0.76551      .   S
    C87    O243      0.76551      .   S
    C17    O244      0.90194      .   S
    C65    O244      0.90194      .   S
    C17    O245      0.76577      .   S
    C81    O245      0.76577      .   S
    C18    O246      0.76567  1_655   S
    C84    O246      0.76567      .   S
    C18    O247      0.90194      .   S
    C66    O247      0.90194      .   S
    C18    O248      0.76577      .   S
    C82    O248      0.76577      .   S
    C19    O249      0.76567  1_655   S
    C85    O249      0.76567      .   S
    C19    O250      0.90193      .   S
    C67    O250      0.90193      .   S
    C19    O251      0.76597      .   S
    C83    O251      0.76597      .   S
    C108   O252      0.94074      .   S
    C8     O252      0.94074  1_565   S
    C108   O253      0.76549      .   S
    C26    O253      0.76549      .   S
    C109   O254      0.94074      .   S
    C9     O254      0.94074      .   S
    C109   O255      0.76549      .   S
    C27    O255      0.76549      .   S
    C110   O256      0.94073      .   S
    C10    O256      0.94073  1_565   S
    C110   O257      0.76566      .   S
    C24    O257      0.76566  1_455   S
    C111   O258      0.94074      .   S
    C11    O258      0.94074      .   S
    C111   O259      0.76566      .   S
    C25    O259      0.76566  1_455   S
    C8     O260      0.94095      .   S
    C85    O260      0.94095      .   S
    C8     O261      0.93262      .   S
    C81    O261      0.93262      .   S
    C11    O262      0.94074      .   S
    C86    O262      0.94074      .   S
    C11    O263      0.93254      .   S
    C82    O263      0.93254      .   S
    C10    O264      0.94095      .   S
    C87    O264      0.94095      .   S
    C10    O265      0.93273      .   S
    C83    O265      0.93273      .   S
    C9     O266      0.94074      .   S
    C84    O266      0.94074      .   S
    C9     O267      0.93265      .   S
    C80    O267      0.93265      .   S
    C27    O268      0.78679      .   S
    C115   O268      0.78679      .   S
    C24    O269      0.78679      .   S
    C112   O269      0.78679      .   S
    C26    O270      0.78668      .   S
    C114   O270      0.78668      .   S
    C25    O271      0.78668      .   S
    C113   O271      0.78668      .   S
    C32    O272      0.54941      .   S
    C64    O272      0.54941      .   S
    C33    O273      0.54942      .   S
    C65    O273      0.54942      .   S
    C34    O274      0.54942      .   S
    C66    O274      0.54942      .   S
    C35    O275      0.54941      .   S
    C67    O275      0.54941      .   S
    C64    O276      0.54995      .   S
    C36    O276      0.54995      .   S
    C67    O277      0.54995      .   S
    C39    O277      0.54995      .   S
    C65    O278      0.54989      .   S
    C37    O278      0.54989      .   S
    C66    O279      0.54989      .   S
    C38    O279      0.54989      .   S
    C113   O280      0.88062      .   S
    C5     O280      0.88062      .   S
    C114   O281      0.88061      .   S
    C6     O281      0.88061      .   S
    C115   O282      0.88057      .   S
    C7     O282      0.88057      .   S
    C112   O283      0.88057      .   S
    C4     O283      0.88057      .   S
    C136   O284      0.88512      .   S
    C4     O284      0.88512      .   S
    C137   O285      0.88507      .   S
    C5     O285      0.88507      .   S
    C138   O286      0.88508      .   S
    C6     O286      0.88508      .   S
    C139   O287      0.88512      .   S
    C7     O287      0.88512      .   S
    C5     O288      0.88506      .   S
    C133   O288      0.88506      .   S
    C5     O289      0.88071      .   S
    C101   O289      0.88071      .   S
    C6     O290      0.88507      .   S
    C134   O290      0.88507      .   S
    C6     O291      0.88071      .   S
    C102   O291      0.88071      .   S
    C7     O292      0.88502      .   S
    C135   O292      0.88502      .   S
    C7     O293      0.88066      .   S
    C103   O293      0.88066      .   S
    C4     O294      0.88502      .   S
    C132   O294      0.88502      .   S
    C4     O295      0.88066      .   S
    C100   O295      0.88066      .   S
    C100   O296      0.78681      .   S
    C20    O296      0.78681      .   S
    C101   O297      0.78680      .   S
    C21    O297      0.78680      .   S
    C102   O298      0.78680      .   S
    C22    O298      0.78680      .   S
    C103   O299      0.78681      .   S
    C23    O299      0.78681      .   S
    C62    O300      0.55011      .   S
    C78    O300      0.55011      .   S
    C61    O301      0.55011      .   S
    C77    O301      0.55011      .   S
    C60    O302      0.54988      .   S
    C76    O302      0.54988      .   S
    C63    O303      0.54988      .   S
    C79    O303      0.54988      .   S
    C119   O304      0.93273      .   S
    C14    O304      0.93273  1_545   S
    C118   O305      0.93260      .   S
    C15    O305      0.93260      .   S
    C76    O306      0.54942      .   S
    C56    O306      0.54942      .   S
    C79    O307      0.54942      .   S
    C59    O307      0.54942      .   S
    C77    O308      0.54941      .   S
    C57    O308      0.54941      .   S
    C78    O309      0.54941      .   S
    C58    O309      0.54941      .   S
    C123   O310      0.94108      .   S
    C14    O310      0.94108  1_545   S
    C122   O311      0.94084      .   S
    C15    O311      0.94084      .   S
