# CIF file generated by openbabel 2.4.90, see http://openbabel.sf.net
data_I
_chemical_name_common ''
_cell_length_a 9.898
_cell_length_b 16.558
_cell_length_c 12.187
_cell_angle_alpha 89.965
_cell_angle_beta 89.971
_cell_angle_gamma 91.592
_space_group_name_H-M_alt 'P 1'
_space_group_name_Hall 'P 1'
loop_
    _symmetry_equiv_pos_as_xyz
    x,y,z
loop_
    _atom_site_label
    _atom_site_type_symbol
    _atom_site_fract_x
    _atom_site_fract_y
    _atom_site_fract_z
    _atom_site_occupancy
    Zr0     Zr   0.38229   0.43084   0.24998   1.000
    Zr1     Zr   0.38229   0.93082   0.24998   1.000
    Zr2     Zr   0.88228   0.43084   0.24998   1.000
    Zr3     Zr   0.88227   0.93082   0.24998   1.000
    Zr4     Zr   0.11768   0.06915   0.74999   1.000
    Zr5     Zr   0.11768   0.56913   0.74998   1.000
    Zr6     Zr   0.61767   0.06915   0.74998   1.000
    Zr7     Zr   0.61766   0.56913   0.74999   1.000
    Zr8     Zr   0.24999   1.00000   0.49998   1.000
    Zr9     Zr   0.24999   0.49998   0.49998   1.000
    Zr10    Zr   0.74997   1.00000   0.49998   1.000
    Zr11    Zr   0.74997   0.49998   0.49998   1.000
    Zr12    Zr   0.24999   0.00000   0.00000   1.000
    Zr13    Zr   0.24999   0.49999   0.00000   1.000
    Zr14    Zr   0.74997   0.00000   0.99999   1.000
    Zr15    Zr   0.74997   0.49998   0.99997   1.000
    Zr16    Zr   0.28379   0.48277   0.34695   1.000
    Zr17    Zr   0.28378   0.98276   0.34695   1.000
    Zr18    Zr   0.78377   0.48277   0.34695   1.000
    Zr19    Zr   0.78377   0.98276   0.34695   1.000
    Zr20    Zr   0.21619   0.01720   0.84694   1.000
    Zr21    Zr   0.21618   0.51719   0.84694   1.000
    Zr22    Zr   0.71617   0.01720   0.84694   1.000
    Zr23    Zr   0.71616   0.51719   0.84694   1.000
    Zr24    Zr   0.21619   0.01721   0.65301   1.000
    Zr25    Zr   0.21618   0.51720   0.65301   1.000
    Zr26    Zr   0.71617   0.01721   0.65301   1.000
    Zr27    Zr   0.71617   0.51720   0.65301   1.000
    Zr28    Zr   0.28379   0.48279   0.15302   1.000
    Zr29    Zr   0.28379   0.98277   0.15302   1.000
    Zr30    Zr   0.78377   0.48278   0.15302   1.000
    Zr31    Zr   0.78377   0.98277   0.15302   1.000
    O32     O    0.33304   0.45681   0.20150   1.000
    O33     O    0.33304   0.95680   0.20150   1.000
    O34     O    0.83303   0.45681   0.20150   1.000
    O35     O    0.83302   0.95680   0.20150   1.000
    O36     O    0.33304   0.95679   0.29846   1.000
    O37     O    0.33304   0.45680   0.29846   1.000
    O38     O    0.83303   0.45680   0.29846   1.000
    O39     O    0.83302   0.95679   0.29846   1.000
    O40     O    0.16694   0.04318   0.70150   1.000
    O41     O    0.16693   0.54317   0.70149   1.000
    O42     O    0.66692   0.04318   0.70149   1.000
    O43     O    0.66691   0.54317   0.70150   1.000
    O44     O    0.16693   0.54316   0.79846   1.000
    O45     O    0.66692   0.04317   0.79846   1.000
    O46     O    0.66691   0.54316   0.79846   1.000
    O47     O    0.16694   0.04317   0.79846   1.000
    N48     N    0.99497   0.88369   0.01827   1.000
    N49     N    0.00498   0.61627   0.98170   1.000
    O50     O    0.17090   0.92776   0.99725   1.000
    O51     O    0.86201   0.95544   0.96953   1.000
    O52     O    0.13794   0.54453   0.03043   1.000
    O53     O    0.82905   0.57220   0.00272   1.000
    O54     O    0.94689   0.89255   0.17162   1.000
    O55     O    0.05306   0.60740   0.82834   1.000
    O56     O    0.99325   0.80417   0.00299   1.000
    N57     N    0.00499   0.11628   0.98170   1.000
    N58     N    0.99498   0.38370   0.01827   1.000
    O59     O    0.13795   0.04454   0.03037   1.000
    O60     O    0.17091   0.42777   0.99725   1.000
    O61     O    0.86201   0.45544   0.96953   1.000
    O62     O    0.82906   0.07222   0.00272   1.000
    O63     O    0.94690   0.39257   0.17162   1.000
    O64     O    0.05307   0.10742   0.82834   1.000
    O65     O    0.00671   0.19580   0.99697   1.000
    N66     N    0.49512   0.38377   0.48173   1.000
    N67     N    0.50485   0.11621   0.51823   1.000
    O68     O    0.55259   0.10714   0.67162   1.000
    O69     O    0.63794   0.04455   0.46954   1.000
    O70     O    0.44737   0.39285   0.32833   1.000
    O71     O    0.36202   0.45543   0.53042   1.000
    O72     O    0.67095   0.42776   0.50287   1.000
    O73     O    0.32902   0.07223   0.49710   1.000
    O74     O    0.50666   0.19578   0.50299   1.000
    N75     N    0.50496   0.61627   0.98170   1.000
    N76     N    0.49499   0.88369   0.01827   1.000
    O77     O    0.36203   0.95543   0.96953   1.000
    O78     O    0.63792   0.54453   0.03037   1.000
    O79     O    0.32907   0.57220   0.00270   1.000
    O80     O    0.55304   0.60740   0.82834   1.000
    O81     O    0.67089   0.92776   0.99724   1.000
    O82     O    0.44691   0.89256   0.17162   1.000
    O83     O    0.49326   0.80417   0.00300   1.000
    N84     N    0.50497   0.11628   0.98170   1.000
    N85     N    0.49499   0.38370   0.01827   1.000
    O86     O    0.63793   0.04454   0.03043   1.000
    O87     O    0.55304   0.10741   0.82834   1.000
    O88     O    0.32907   0.07221   0.00273   1.000
    O89     O    0.44691   0.39257   0.17162   1.000
    O90     O    0.67089   0.42777   0.99724   1.000
    O91     O    0.36203   0.45544   0.96953   1.000
    O92     O    0.49326   0.30418   0.00299   1.000
    N93     N    0.99509   0.88376   0.48173   1.000
    N94     N    0.00486   0.61620   0.51823   1.000
    O95     O    0.17096   0.92775   0.50287   1.000
    O96     O    0.05261   0.60712   0.67162   1.000
    O97     O    0.82899   0.57221   0.49710   1.000
    O98     O    0.94735   0.89284   0.32833   1.000
    O99     O    0.86200   0.95542   0.53042   1.000
    O100    O    0.13795   0.54454   0.46954   1.000
    O101    O    0.00666   0.69576   0.50298   1.000
    N102    N    0.99510   0.38377   0.48173   1.000
    N103    N    0.00486   0.11621   0.51823   1.000
    O104    O    0.17096   0.42776   0.50287   1.000
    O105    O    0.05261   0.10713   0.67164   1.000
    O106    O    0.94735   0.39285   0.32833   1.000
    O107    O    0.86200   0.45543   0.53037   1.000
    O108    O    0.13796   0.04455   0.46954   1.000
    O109    O    0.82900   0.07222   0.49710   1.000
    O110    O    0.00667   0.19578   0.50299   1.000
    N111    N    0.49511   0.88375   0.48173   1.000
    N112    N    0.50484   0.61620   0.51823   1.000
    O113    O    0.55258   0.60712   0.67164   1.000
    O114    O    0.44736   0.89283   0.32833   1.000
    O115    O    0.36202   0.95542   0.53037   1.000
    O116    O    0.67094   0.92775   0.50287   1.000
    O117    O    0.63794   0.54454   0.46954   1.000
    O118    O    0.32901   0.57221   0.49710   1.000
    O119    O    0.50665   0.69576   0.50299   1.000
loop_
    _geom_bond_atom_site_label_1
    _geom_bond_atom_site_label_2
    _geom_bond_distance
    _geom_bond_site_symmetry_2
    _ccdc_geom_bond_type
    Zr28   O32       0.88506      .   S
    Zr0    O32       0.88506      .   S
    Zr29   O33       0.88506      .   S
    Zr1    O33       0.88506      .   S
    Zr30   O34       0.88506      .   S
    Zr2    O34       0.88506      .   S
    Zr31   O35       0.88506      .   S
    Zr3    O35       0.88506      .   S
    Zr1    O36       0.88507      .   S
    Zr17   O36       0.88507      .   S
    Zr0    O37       0.88507      .   S
    Zr16   O37       0.88507      .   S
    Zr2    O38       0.88508      .   S
    Zr18   O38       0.88508      .   S
    Zr3    O39       0.88508      .   S
    Zr19   O39       0.88508      .   S
    Zr24   O40       0.88512      .   S
    Zr4    O40       0.88512      .   S
    Zr25   O41       0.88507      .   S
    Zr5    O41       0.88507      .   S
    Zr26   O42       0.88508      .   S
    Zr6    O42       0.88508      .   S
    Zr27   O43       0.88512      .   S
    Zr7    O43       0.88512      .   S
    Zr5    O44       0.88506      .   S
    Zr21   O44       0.88506      .   S
    Zr6    O45       0.88507      .   S
    Zr22   O45       0.88507      .   S
    Zr7    O46       0.88502      .   S
    Zr23   O46       0.88502      .   S
    Zr4    O47       0.88502      .   S
    Zr20   O47       0.88502      .   S
    N48    O50       1.88662  1_654   S
    Zr12   O50       1.41162  1_544   S
    N48    O51       1.89281  1_554   S
    Zr14   O51       1.39909  1_545   S
    N49    O52       1.89273  1_556   S
    Zr13   O52       1.39887      .   S
    N49    O53       1.88655  1_456   S
    Zr15   O53       1.41130  1_556   S
    N48    O54       1.93494      .   S
    Zr3    O54       1.32106      .   S
    N49    O55       1.93506      .   S
    Zr5    O55       1.32106      .   S
    N49    O56       3.12761  1_456   S
    N48    O56       1.32955      .   S
    N57    O59       1.89251  1_556   S
    Zr12   O59       1.39866      .   S
    N58    O60       1.88655  1_654   S
    Zr13   O60       1.41130  1_554   S
    N58    O61       1.89276  1_554   S
    Zr15   O61       1.39889      .   S
    N57    O62       1.88655  1_456   S
    Zr14   O62       1.41126  1_556   S
    N58    O63       1.93494      .   S
    Zr2    O63       1.32106      .   S
    N57    O64       1.93503      .   S
    Zr4    O64       1.32099      .   S
    N58    O65       3.12763  1_654   S
    N57    O65       1.32955      .   S
    N67    O68       1.93520      .   S
    Zr6    O68       1.32092      .   S
    N67    O69       1.89272      .   S
    Zr10   O69       1.39898  1_565   S
    N66    O70       1.93528      .   S
    Zr0    O70       1.32086      .   S
    N66    O71       1.89273      .   S
    Zr9    O71       1.39897      .   S
    N66    O72       1.88573      .   S
    Zr11   O72       1.41111      .   S
    N67    O73       1.88572      .   S
    Zr8    O73       1.41112  1_565   S
    N66    O74       3.12867      .   S
    N67    O74       1.32994      .   S
    N76    O77       1.89280  1_554   S
    Zr12   O77       1.39912  1_544   S
    N75    O78       1.89248  1_556   S
    Zr15   O78       1.39877  1_556   S
    N75    O79       1.88620  1_556   S
    Zr13   O79       1.41124      .   S
    N75    O80       1.93503      .   S
    Zr7    O80       1.32099      .   S
    N76    O81       1.88630  1_554   S
    Zr14   O81       1.41162  1_545   S
    N76    O82       1.93494      .   S
    Zr1    O82       1.32106      .   S
    N75    O83       3.12759  1_556   S
    N76    O83       1.32956      .   S
    N84    O86       1.89272  1_556   S
    Zr14   O86       1.39889  1_556   S
    N84    O87       1.93506      .   S
    Zr6    O87       1.32106      .   S
    N84    O88       1.88624  1_556   S
    Zr12   O88       1.41125      .   S
    N85    O89       1.93494      .   S
    Zr0    O89       1.32106      .   S
    N85    O90       1.88624  1_554   S
    Zr15   O90       1.41126      .   S
    N85    O91       1.89274  1_554   S
    Zr13   O91       1.39899  1_554   S
    N84    O92       3.12760  1_556   S
    N85    O92       1.32956      .   S
    N93    O95       1.88611  1_655   S
    Zr8    O95       1.41143      .   S
    N94    O96       1.93520      .   S
    Zr5    O96       1.32093      .   S
    N94    O97       1.88604  1_455   S
    Zr11   O97       1.41111      .   S
    N93    O98       1.93528      .   S
    Zr3    O98       1.32086      .   S
    N93    O99       1.89279      .   S
    Zr10   O99       1.39909      .   S
    N94    O100      1.89273      .   S
    Zr9    O100      1.39898      .   S
    N93    O101      3.12867  1_655   S
    N94    O101      1.32995      .   S
    N102   O104      1.88605  1_655   S
    Zr9    O104      1.41111      .   S
    N103   O105      1.93539      .   S
    Zr4    O105      1.32086      .   S
    N102   O106      1.93528      .   S
    Zr2    O106      1.32086      .   S
    N102   O107      1.89253      .   S
    Zr11   O107      1.39881      .   S
    N103   O108      1.89272      .   S
    Zr8    O108      1.39898  1_565   S
    N103   O109      1.88603  1_455   S
    Zr10   O109      1.41110  1_565   S
    N102   O110      3.12868  1_655   S
    N103   O110      1.32995      .   S
    N112   O113      1.93540      .   S
    Zr7    O113      1.32086      .   S
    N111   O114      1.93529      .   S
    Zr1    O114      1.32086      .   S
    N111   O115      1.89258      .   S
    Zr8    O115      1.39892      .   S
    N111   O116      1.88581      .   S
    Zr10   O116      1.41143      .   S
    N112   O117      1.89272      .   S
    Zr11   O117      1.39898      .   S
    N112   O118      1.88571      .   S
    Zr9    O118      1.41112      .   S
    N111   O119      3.12865      .   S
    N112   O119      1.32994      .   S
