# CIF file generated by openbabel 2.4.90, see http://openbabel.sf.net
data_I
_chemical_name_common ''
_cell_length_a 16.978
_cell_length_b 23.612
_cell_length_c 15.943
_cell_angle_alpha 95.36
_cell_angle_beta 105.337
_cell_angle_gamma 99.088
_space_group_name_H-M_alt 'P 1'
_space_group_name_Hall 'P 1'
loop_
    _symmetry_equiv_pos_as_xyz
    x,y,z
loop_
    _atom_site_label
    _atom_site_type_symbol
    _atom_site_fract_x
    _atom_site_fract_y
    _atom_site_fract_z
    _atom_site_occupancy
    H0      H    0.48880   0.21601   0.57614   1.000
    H1      H    0.48931   0.71574   0.57635   1.000
    H2      H    0.98880   0.21601   0.57614   1.000
    H3      H    0.98931   0.71574   0.57635   1.000
    H4      H    0.03443   0.29055   0.58882   1.000
    H5      H    0.03455   0.79033   0.58882   1.000
    H6      H    0.53443   0.29055   0.58882   1.000
    H7      H    0.53455   0.79033   0.58882   1.000
    H8      H    0.42748   0.20259   0.80529   1.000
    H9      H    0.42734   0.70288   0.80428   1.000
    H10     H    0.92748   0.20259   0.80529   1.000
    H11     H    0.92734   0.70288   0.80428   1.000
    H12     H    0.00669   0.22138   0.90790   1.000
    H13     H    0.00610   0.72102   0.90732   1.000
    H14     H    0.50669   0.22138   0.90790   1.000
    H15     H    0.50610   0.72102   0.90732   1.000
    H16     H    0.49089   0.28388   0.74343   1.000
    H17     H    0.49179   0.78464   0.74412   1.000
    H18     H    0.99089   0.28388   0.74343   1.000
    H19     H    0.99179   0.78464   0.74412   1.000
    H20     H    0.06325   0.31310   0.84802   1.000
    H21     H    0.06378   0.81311   0.84920   1.000
    H22     H    0.56325   0.31310   0.84802   1.000
    H23     H    0.56379   0.81311   0.84922   1.000
    H24     H    0.24322   0.17585   0.80246   1.000
    H25     H    0.24287   0.67576   0.80282   1.000
    H26     H    0.74322   0.17585   0.80240   1.000
    H27     H    0.74287   0.67576   0.80282   1.000
    H28     H    0.29005   0.16654   0.55898   1.000
    H29     H    0.28985   0.66650   0.55941   1.000
    H30     H    0.79004   0.16654   0.55898   1.000
    H31     H    0.78985   0.66650   0.55941   1.000
    H32     H    0.29437   0.06215   0.55513   1.000
    H33     H    0.29391   0.56209   0.55542   1.000
    H34     H    0.79437   0.06215   0.55513   1.000
    H35     H    0.79390   0.56209   0.55542   1.000
    H36     H    0.24859   0.07261   0.81020   1.000
    H37     H    0.24799   0.57250   0.81044   1.000
    H38     H    0.74859   0.07261   0.81021   1.000
    H39     H    0.74799   0.57250   0.81044   1.000
    H40     H    0.35562   0.48889   0.60159   1.000
    H41     H    0.35583   0.98881   0.60103   1.000
    H42     H    0.85562   0.48889   0.60159   1.000
    H43     H    0.85582   0.98881   0.60103   1.000
    H44     H    0.18825   0.48027   0.76494   1.000
    H45     H    0.18901   0.98048   0.76498   1.000
    H46     H    0.68825   0.48027   0.76494   1.000
    H47     H    0.68900   0.98047   0.76498   1.000
    H48     H    0.34776   0.38301   0.59970   1.000
    H49     H    0.34777   0.88292   0.59914   1.000
    H50     H    0.84775   0.38301   0.59970   1.000
    H51     H    0.84776   0.88292   0.59914   1.000
    H52     H    0.11911   0.52717   0.99183   1.000
    H53     H    0.61910   0.52716   0.99181   1.000
    H54     H    0.38191   0.55797   0.00762   1.000
    H55     H    0.88191   0.55797   0.00763   1.000
    H56     H    0.12481   0.63174   0.99315   1.000
    H57     H    0.62480   0.63174   0.99314   1.000
    H58     H    0.37612   0.66062   0.00530   1.000
    H59     H    0.87612   0.66062   0.00531   1.000
    H60     H    0.19114   0.37484   0.76028   1.000
    H61     H    0.19174   0.87504   0.76036   1.000
    H62     H    0.69114   0.37484   0.76028   1.000
    H63     H    0.69173   0.87504   0.76036   1.000
    H64     H    0.01069   0.28428   0.42365   1.000
    H65     H    0.01119   0.78401   0.42386   1.000
    H66     H    0.51068   0.28428   0.42365   1.000
    H67     H    0.51119   0.78401   0.42386   1.000
    H68     H    0.46544   0.20969   0.41118   1.000
    H69     H    0.46556   0.70946   0.41118   1.000
    H70     H    0.96544   0.20969   0.41118   1.000
    H71     H    0.96556   0.70946   0.41118   1.000
    H72     H    0.07264   0.29714   0.19572   1.000
    H73     H    0.07251   0.79743   0.19471   1.000
    H74     H    0.57264   0.29714   0.19572   1.000
    H75     H    0.57251   0.79743   0.19470   1.000
    H76     H    0.49388   0.27899   0.09268   1.000
    H77     H    0.49329   0.77863   0.09210   1.000
    H78     H    0.99388   0.27899   0.09268   1.000
    H79     H    0.99330   0.77863   0.09210   1.000
    C80     C    0.72657   0.96117   0.72871   1.000
    C81     C    0.31390   0.40627   0.63643   1.000
    C82     C    0.31408   0.90624   0.63601   1.000
    C83     C    0.81390   0.40627   0.63643   1.000
    H84     H    0.00820   0.21538   0.25588   1.000
    H85     H    0.00910   0.71614   0.25657   1.000
    H86     H    0.50820   0.21538   0.25588   1.000
    H87     H    0.50910   0.71614   0.25657   1.000
    H88     H    0.43620   0.18690   0.15079   1.000
    H89     H    0.43673   0.68692   0.15198   1.000
    H90     H    0.93620   0.18690   0.15079   1.000
    H91     H    0.93674   0.68692   0.15198   1.000
    H92     H    0.25712   0.32425   0.19718   1.000
    H93     H    0.25677   0.82417   0.19754   1.000
    H94     H    0.75712   0.32425   0.19718   1.000
    H95     H    0.75677   0.82417   0.19754   1.000
    H96     H    0.21014   0.33351   0.44059   1.000
    H97     H    0.20995   0.83348   0.44102   1.000
    H98     H    0.71014   0.33351   0.44059   1.000
    H99     H    0.70994   0.83347   0.44102   1.000
    H100    H    0.20609   0.43793   0.44458   1.000
    H101    H    0.20562   0.93787   0.44487   1.000
    H102    H    0.70608   0.43793   0.44458   1.000
    H103    H    0.70562   0.93786   0.44487   1.000
    H104    H    0.25200   0.42752   0.18956   1.000
    H105    H    0.75200   0.42752   0.18956   1.000
    H106    H    0.75140   0.92740   0.18979   1.000
    H107    H    0.14417   0.01120   0.39897   1.000
    H108    H    0.14437   0.51113   0.39841   1.000
    H109    H    0.64416   0.01120   0.39897   1.000
    H110    H    0.64437   0.51113   0.39841   1.000
    C111    C    0.22906   0.44284   0.31711   1.000
    C112    C    0.22855   0.94276   0.31738   1.000
    C113    C    0.72905   0.44284   0.31710   1.000
    C114    C    0.72855   0.94276   0.31738   1.000
    C115    C    0.22775   0.00540   0.31710   1.000
    H116    H    0.31098   0.01954   0.23502   1.000
    H117    H    0.31173   0.51974   0.23506   1.000
    H118    H    0.81098   0.01954   0.23502   1.000
    H119    H    0.81173   0.51974   0.23506   1.000
    H120    H    0.15222   0.11710   0.40086   1.000
    H121    H    0.15224   0.61700   0.40030   1.000
    H122    H    0.65222   0.11709   0.40086   1.000
    H123    H    0.65224   0.61700   0.40030   1.000
    H124    H    0.38089   0.47285   0.00818   1.000
    H125    H    0.88088   0.47285   0.00810   1.000
    H126    H    0.11808   0.44204   0.99238   1.000
    H127    H    0.61808   0.44204   0.99239   1.000
    H128    H    0.37519   0.36827   0.00686   1.000
    H129    H    0.87518   0.36827   0.00685   1.000
    H130    H    0.12387   0.33940   0.99470   1.000
    H131    H    0.62387   0.33940   0.99470   1.000
    H132    H    0.30825   0.12498   0.23964   1.000
    H133    H    0.30885   0.62517   0.23972   1.000
    H134    H    0.80825   0.12498   0.23964   1.000
    H135    H    0.80884   0.62517   0.23972   1.000
    C136    C    0.48960   0.25489   0.54336   1.000
    C137    C    0.48984   0.75457   0.54344   1.000
    C138    C    0.98960   0.25489   0.54336   1.000
    C139    C    0.98984   0.75457   0.54344   1.000
    C140    C    0.47123   0.23855   0.85101   1.000
    C141    C    0.47106   0.73857   0.85060   1.000
    C142    C    0.97123   0.23855   0.85101   1.000
    C143    C    0.97106   0.73857   0.85060   1.000
    C144    C    0.02710   0.27308   0.80580   1.000
    C145    C    0.02755   0.77336   0.80634   1.000
    C146    C    0.52710   0.27308   0.80580   1.000
    C147    C    0.52755   0.77336   0.80634   1.000
    C148    C    0.25445   0.14926   0.74887   1.000
    C149    C    0.25407   0.64919   0.74921   1.000
    C150    C    0.75445   0.14926   0.74887   1.000
    C151    C    0.75407   0.64919   0.74921   1.000
    C152    C    0.28070   0.14399   0.61320   1.000
    C153    C    0.28041   0.64395   0.61359   1.000
    C154    C    0.78070   0.14399   0.61320   1.000
    C155    C    0.78041   0.64395   0.61359   1.000
    C156    C    0.28380   0.08547   0.61214   1.000
    C157    C    0.28336   0.58541   0.61245   1.000
    C158    C    0.78380   0.08547   0.61214   1.000
    C159    C    0.78335   0.58541   0.61245   1.000
    C160    C    0.25696   0.09097   0.75231   1.000
    C161    C    0.25643   0.59088   0.75257   1.000
    C162    C    0.75695   0.09097   0.75231   1.000
    C163    C    0.75643   0.59088   0.75257   1.000
    C164    C    0.27143   0.05725   0.68262   1.000
    C165    C    0.27094   0.55717   0.68290   1.000
    C166    C    0.77144   0.05725   0.68262   1.000
    C167    C    0.77094   0.55717   0.68290   1.000
    C168    C    0.27175   0.49454   0.68309   1.000
    C169    C    0.27224   0.99462   0.68283   1.000
    C170    C    0.77175   0.49454   0.68300   1.000
    C171    C    0.77224   0.99462   0.68283   1.000
    C172    C    0.31697   0.46557   0.63679   1.000
    C173    C    0.31725   0.96556   0.63637   1.000
    C174    C    0.81697   0.46557   0.63679   1.000
    C175    C    0.81725   0.96556   0.63630   1.000
    C176    C    0.22598   0.46104   0.72881   1.000
    C177    C    0.22658   0.96117   0.72871   1.000
    C178    C    0.72598   0.46104   0.72881   1.000
    O179    O    0.14228   0.75651   0.06790   1.000
    O180    O    0.64319   0.25678   0.06934   1.000
    O181    O    0.64228   0.75651   0.06790   1.000
    O182    O    0.13906   0.19256   0.18310   1.000
    O183    O    0.13979   0.69334   0.18320   1.000
    O184    O    0.63907   0.19256   0.18300   1.000
    O185    O    0.63979   0.69334   0.18322   1.000
    O186    O    0.03026   0.17053   0.04126   1.000
    C187    C    0.81407   0.90624   0.63600   1.000
    C188    C    0.17816   0.55454   0.99556   1.000
    C189    C    0.67816   0.55454   0.99554   1.000
    C190    C    0.32277   0.57124   0.00432   1.000
    C191    C    0.82277   0.57124   0.00431   1.000
    C192    C    0.25029   0.53149   0.00000   1.000
    C193    C    0.75030   0.53149   0.00000   1.000
    C194    C    0.18059   0.61367   0.99608   1.000
    C195    C    0.68059   0.61367   0.99600   1.000
    C196    C    0.32065   0.62983   0.00413   1.000
    C197    C    0.82065   0.62983   0.00415   1.000
    C198    C    0.22647   0.40209   0.72606   1.000
    C199    C    0.22695   0.90222   0.72596   1.000
    C200    C    0.72646   0.40209   0.72605   1.000
    C201    C    0.72695   0.90221   0.72596   1.000
    C202    C    0.01015   0.24545   0.45656   1.000
    C203    C    0.01038   0.74512   0.45664   1.000
    C204    C    0.51015   0.24545   0.45656   1.000
    C205    C    0.51038   0.74512   0.45664   1.000
    C206    C    0.02892   0.26144   0.14900   1.000
    C207    C    0.02876   0.76146   0.14899   1.000
    C208    C    0.52892   0.26144   0.14900   1.000
    C209    C    0.52876   0.76146   0.14899   1.000
    C210    C    0.47243   0.22665   0.19366   1.000
    C211    C    0.47289   0.72694   0.19419   1.000
    C212    C    0.97244   0.22665   0.19360   1.000
    C213    C    0.97289   0.72694   0.19419   1.000
    C214    C    0.24591   0.35082   0.25079   1.000
    C215    C    0.24553   0.85075   0.25113   1.000
    C216    C    0.74591   0.35082   0.25078   1.000
    C217    C    0.74553   0.85075   0.25113   1.000
    C218    C    0.21958   0.35607   0.38641   1.000
    C219    C    0.21928   0.85603   0.38680   1.000
    C220    C    0.71958   0.35607   0.38641   1.000
    C221    C    0.71928   0.85602   0.38680   1.000
    C222    C    0.21664   0.41461   0.38755   1.000
    C223    C    0.21620   0.91454   0.38786   1.000
    C224    C    0.71664   0.41461   0.38755   1.000
    C225    C    0.71619   0.91454   0.38786   1.000
    C226    C    0.24356   0.40914   0.24743   1.000
    C227    C    0.24304   0.90904   0.24770   1.000
    C228    C    0.74356   0.40914   0.24743   1.000
    C229    C    0.74303   0.90904   0.24769   1.000
    C230    C    0.22824   0.50547   0.31692   1.000
    C231    C    0.72775   0.00540   0.31717   1.000
    C232    C    0.72824   0.50547   0.31691   1.000
    C233    C    0.18274   0.03446   0.36364   1.000
    C234    C    0.18302   0.53444   0.36321   1.000
    C235    C    0.68274   0.03445   0.36363   1.000
    C236    C    0.68302   0.53444   0.36321   1.000
    C237    C    0.27341   0.03884   0.27129   1.000
    C238    C    0.27401   0.53898   0.27119   1.000
    C239    C    0.77341   0.03884   0.27129   1.000
    C240    C    0.77401   0.53898   0.27119   1.000
    C241    C    0.18592   0.09378   0.36400   1.000
    C242    C    0.18609   0.59375   0.36357   1.000
    C243    C    0.68591   0.09378   0.36400   1.000
    C244    C    0.68609   0.59375   0.36357   1.000
    C245    C    0.32183   0.44548   0.00445   1.000
    C246    C    0.82183   0.44548   0.00446   1.000
    C247    C    0.17722   0.42878   0.99568   1.000
    C248    C    0.67722   0.42878   0.99569   1.000
    C249    C    0.24970   0.46853   0.99996   1.000
    C250    C    0.74969   0.46852   0.99993   1.000
    C251    C    0.74977   0.96854   0.40000   1.000
    C252    C    0.31940   0.38635   0.00393   1.000
    C253    C    0.81940   0.38634   0.00390   1.000
    C254    C    0.17934   0.37018   0.99587   1.000
    C255    C    0.67934   0.37018   0.99585   1.000
    C256    C    0.27304   0.09780   0.27404   1.000
    C257    C    0.27353   0.59793   0.27395   1.000
    C258    C    0.77304   0.09780   0.27404   1.000
    C259    C    0.77353   0.59793   0.27390   1.000
    S260    S    0.38911   0.27455   0.52922   1.000
    S261    S    0.38922   0.77396   0.52944   1.000
    S262    S    0.88911   0.27455   0.52920   1.000
    S263    S    0.88922   0.77396   0.52944   1.000
    S264    S    0.41058   0.28382   0.89275   1.000
    S265    S    0.41046   0.78379   0.89253   1.000
    S266    S    0.91058   0.28382   0.89275   1.000
    S267    S    0.91046   0.78379   0.89253   1.000
    S268    S    0.10127   0.23302   0.78019   1.000
    S269    S    0.10161   0.73331   0.78048   1.000
    S270    S    0.60127   0.23302   0.78019   1.000
    S271    S    0.60161   0.73331   0.78048   1.000
    S272    S    0.11077   0.22605   0.47056   1.000
    S273    S    0.11088   0.72546   0.47079   1.000
    S274    S    0.61077   0.22605   0.47056   1.000
    S275    S    0.61088   0.72546   0.47070   1.000
    S276    S    0.08952   0.21622   0.10747   1.000
    S277    S    0.08941   0.71620   0.10725   1.000
    S278    S    0.58952   0.21622   0.10747   1.000
    S279    S    0.58941   0.71619   0.10725   1.000
    S280    S    0.39838   0.26670   0.21953   1.000
    S281    S    0.39872   0.76699   0.21981   1.000
    S282    S    0.89838   0.26670   0.21953   1.000
    S283    S    0.89872   0.76699   0.21981   1.000
    N284    N    0.25085   0.65115   0.00000   1.000
    N285    N    0.75084   0.65115   0.00000   1.000
    N286    N    0.26617   0.17571   0.68051   1.000
    N287    N    0.26591   0.67567   0.68092   1.000
    N288    N    0.76617   0.17571   0.68051   1.000
    N289    N    0.76591   0.67567   0.68092   1.000
    N290    N    0.26906   0.37465   0.68009   1.000
    N291    N    0.26932   0.87469   0.67982   1.000
    N292    N    0.76906   0.37465   0.68010   1.000
    N293    N    0.76932   0.87469   0.67983   1.000
    N294    N    0.24914   0.34886   0.99914   1.000
    N295    N    0.74915   0.34887   0.99916   1.000
    N296    N    0.23408   0.32434   0.31908   1.000
    N297    N    0.23383   0.82431   0.31950   1.000
    N298    N    0.73408   0.32434   0.31908   1.000
    N299    N    0.73382   0.82431   0.31949   1.000
    N300    N    0.23066   0.12533   0.32017   1.000
    N301    N    0.23092   0.62536   0.31990   1.000
    N302    N    0.73066   0.12533   0.32017   1.000
    N303    N    0.73093   0.62536   0.31990   1.000
    O304    O    0.37776   0.27592   0.61937   1.000
    O305    O    0.37798   0.77517   0.61962   1.000
    O306    O    0.87776   0.27592   0.61937   1.000
    O307    O    0.87797   0.77517   0.61962   1.000
    O308    O    0.39075   0.33053   0.49655   1.000
    O309    O    0.39051   0.82992   0.49674   1.000
    O310    O    0.89075   0.33053   0.49655   1.000
    O311    O    0.89051   0.82992   0.49670   1.000
    O312    O    0.32852   0.22550   0.46671   1.000
    O313    O    0.32873   0.72489   0.46691   1.000
    O314    O    0.82852   0.22549   0.46671   1.000
    O315    O    0.82873   0.72489   0.46691   1.000
    O316    O    0.35771   0.24351   0.93203   1.000
    O317    O    0.35680   0.74323   0.93065   1.000
    O318    O    0.85771   0.24350   0.93203   1.000
    O319    O    0.85680   0.74323   0.93065   1.000
    O320    O    0.36020   0.30668   0.81678   1.000
    O321    O    0.36092   0.80745   0.81690   1.000
    O322    O    0.86020   0.30668   0.81678   1.000
    O323    O    0.86092   0.80745   0.81690   1.000
    O324    O    0.46977   0.33004   0.95808   1.000
    O325    O    0.46973   0.82948   0.95874   1.000
    O326    O    0.96977   0.33003   0.95808   1.000
    O327    O    0.96973   0.82948   0.95874   1.000
    O328    O    0.14800   0.21684   0.86533   1.000
    O329    O    0.14742   0.71607   0.86519   1.000
    O330    O    0.64800   0.21684   0.86530   1.000
    O331    O    0.64742   0.71607   0.86519   1.000
    O332    O    0.15539   0.27669   0.74688   1.000
    O333    O    0.15663   0.77735   0.74873   1.000
    O334    O    0.65539   0.27669   0.74688   1.000
    O335    O    0.65663   0.77735   0.74874   1.000
    O336    O    0.05584   0.18252   0.71589   1.000
    O337    O    0.05616   0.68342   0.71502   1.000
    O338    O    0.55584   0.18252   0.71589   1.000
    O339    O    0.55617   0.68342   0.71502   1.000
    O340    O    0.12201   0.22485   0.38038   1.000
    O341    O    0.12223   0.72410   0.38063   1.000
    O342    O    0.62201   0.22484   0.38030   1.000
    O343    O    0.62223   0.72410   0.38063   1.000
    O344    O    0.10948   0.17009   0.50326   1.000
    O345    O    0.10923   0.66948   0.50340   1.000
    O346    O    0.60948   0.17009   0.50326   1.000
    O347    O    0.60923   0.66948   0.50344   1.000
    O348    O    0.17126   0.27512   0.53309   1.000
    O349    O    0.17147   0.77452   0.53329   1.000
    O350    O    0.67126   0.27512   0.53309   1.000
    O351    O    0.67147   0.77452   0.53329   1.000
    O352    O    0.14319   0.25678   0.06934   1.000
    O353    O    0.03022   0.66998   0.04192   1.000
    O354    O    0.53026   0.17053   0.04126   1.000
    O355    O    0.53022   0.66998   0.04192   1.000
    O356    O    0.35256   0.28393   0.13481   1.000
    O357    O    0.35199   0.78318   0.13467   1.000
    O358    O    0.85256   0.28393   0.13481   1.000
    O359    O    0.85198   0.78317   0.13467   1.000
    O360    O    0.34338   0.22267   0.25129   1.000
    O361    O    0.34459   0.72333   0.25312   1.000
    O362    O    0.84338   0.22267   0.25130   1.000
    O363    O    0.84459   0.72332   0.25312   1.000
    O364    O    0.44383   0.31659   0.28498   1.000
    O365    O    0.44414   0.81749   0.28411   1.000
    O366    O    0.94383   0.31660   0.28498   1.000
    O367    O    0.94414   0.81749   0.28411   1.000
loop_
    _geom_bond_atom_site_label_1
    _geom_bond_atom_site_label_2
    _geom_bond_distance
    _geom_bond_site_symmetry_2
    _ccdc_geom_bond_type
    N284   C196      1.34744      .   S
    N284   C194      1.35163  1_554   S
    N285   C197      1.34751      .   S
    N285   C195      1.35119  1_554   S
    C193   C191      1.40642      .   S
    C193   C189      1.40468  1_554   S
    C193   C250      1.48501  1_554   S
    C192   C190      1.40651      .   S
    C192   C188      1.40463  1_554   S
    C192   C249      1.48496  1_554   S
    C253   C246      1.38942      .   S
    C253   H129      1.09050      .   S
    C253   N295      1.34827  1_554   S
    C252   C245      1.38942      .   S
    C252   H128      1.09051      .   S
    C252   N294      1.34828  1_554   S
    C196   C190      1.38989      .   S
    C196   H58       1.08976      .   S
    C197   C191      1.38990      .   S
    C197   H59       1.08974      .   S
    C191   H55       1.08778      .   S
    C190   H54       1.08780      .   S
    C245   H124      1.08768      .   S
    C245   C249      1.40455  1_554   S
    C246   H125      1.08798      .   S
    C246   C250      1.40451  1_554   S
    O354   S278      1.47406      .   S
    O186   S276      1.47405      .   S
    O353   S277      1.47414      .   S
    O355   S279      1.47417      .   S
    O181   S279      1.49825      .   S
    O179   S277      1.49830      .   S
    O352   S276      1.49772      .   S
    O180   S278      1.49770      .   S
    H77    C209      1.09837      .   S
    H79    C207      1.09834  1_655   S
    H76    C208      1.09391      .   S
    H78    C206      1.09388  1_655   S
    S277   C207      1.79524      .   S
    S277   O183      1.48630      .   S
    S279   C209      1.79523      .   S
    S279   O185      1.48653      .   S
    S276   C206      1.79240      .   S
    S276   O182      1.48700      .   S
    S278   C208      1.79241      .   S
    S278   O184      1.48590      .   S
    O357   S281      1.49700      .   S
    O359   S283      1.49698      .   S
    O356   S280      1.49731      .   S
    O358   S282      1.49732      .   S
    C209   C211      1.52007      .   S
    C209   H75       1.09672      .   S
    C207   C213      1.52007  1_455   S
    C207   H73       1.09678      .   S
    C208   C210      1.52424      .   S
    C208   H74       1.09941      .   S
    C206   C212      1.52353  1_455   S
    C206   H72       1.09943      .   S
    H88    C210      1.09630      .   S
    H90    C212      1.09593      .   S
    H89    C211      1.09641      .   S
    H91    C213      1.09640      .   S
    H104   C226      1.08866      .   S
    H105   C228      1.08864      .   S
    H106   C229      1.08854      .   S
    C212   S282      1.79537      .   S
    C212   H84       1.09861  1_655   S
    C210   S280      1.79502      .   S
    C210   H86       1.09790      .   S
    C211   S281      1.79533      .   S
    C211   H87       1.09797      .   S
    C213   S283      1.79535      .   S
    C213   H85       1.09796  1_655   S
    H94    C216      1.08795      .   S
    H92    C214      1.08804      .   S
    H95    C217      1.08818      .   S
    H93    C215      1.08820      .   S
    S280   O360      1.50043      .   S
    S280   O364      1.45924      .   S
    S282   O362      1.50047      .   S
    S282   O366      1.45928      .   S
    S281   O361      1.50026      .   S
    S281   O365      1.45953      .   S
    S283   O363      1.50027      .   S
    S283   O367      1.45952      .   S
    H118   C239      1.08932      .   S
    H116   C237      1.08930      .   S
    H119   C240      1.08932      .   S
    H117   C238      1.08933      .   S
    H134   C258      1.08995      .   S
    H132   C256      1.08994      .   S
    H133   C257      1.09002      .   S
    H135   C259      1.08946      .   S
    C226   C214      1.38943      .   S
    C226   C111      1.40340      .   S
    C228   C216      1.38941      .   S
    C228   C113      1.40337      .   S
    C229   C217      1.38945      .   S
    C229   C114      1.40356      .   S
    C227   C215      1.38945      .   S
    C227   C112      1.40351      .   S
    C216   N298      1.34908      .   S
    C214   N296      1.34904      .   S
    C215   N297      1.34901      .   S
    C217   N299      1.34897      .   S
    C240   C259      1.38987      .   S
    C240   C232      1.40499      .   S
    C238   C257      1.38982      .   S
    C238   C230      1.40512      .   S
    C237   C256      1.38978      .   S
    C237   C115      1.40420      .   S
    C239   C258      1.38976      .   S
    C239   C231      1.40502      .   S
    C259   N303      1.34926      .   S
    C257   N301      1.34881      .   S
    C258   N302      1.34885      .   S
    C256   N300      1.34885      .   S
    C232   C113      1.48139      .   S
    C232   C236      1.40482      .   S
    C230   C111      1.48139      .   S
    C230   C234      1.40473      .   S
    C115   C112      1.48155  1_545   S
    C115   C233      1.40565      .   S
    C113   C224      1.40395      .   S
    C111   C222      1.40390      .   S
    C231   C114      1.48143  1_545   S
    C231   C235      1.40484      .   S
    C231   C251      1.64235  1_545   S
    C112   C223      1.40389      .   S
    C114   C225      1.40398      .   S
    C114   C251      1.32861      .   S
    N296   C218      1.34970      .   S
    N298   C220      1.34978      .   S
    N299   C221      1.34973      .   S
    N297   C219      1.34967      .   S
    N303   C244      1.34885      .   S
    N301   C242      1.34879      .   S
    N302   C243      1.34895      .   S
    N300   C241      1.34894      .   S
    C236   C244      1.39252      .   S
    C236   H110      1.08954      .   S
    C234   C242      1.39251      .   S
    C234   H108      1.08952      .   S
    C242   H121      1.09202      .   S
    C244   H123      1.09199      .   S
    C235   C243      1.39263      .   S
    C235   H109      1.08960      .   S
    C233   C241      1.39262      .   S
    C233   H107      1.08950      .   S
    C241   H120      1.09211      .   S
    C243   H122      1.09207      .   S
    O342   S274      1.49912      .   S
    O340   S272      1.49785      .   S
    O343   S275      1.49666      .   S
    O341   S273      1.49808      .   S
    C220   C224      1.38959      .   S
    C220   H98       1.08974      .   S
    C218   C222      1.38960      .   S
    C218   H96       1.08977      .   S
    C221   C225      1.38964      .   S
    C221   H99       1.08982      .   S
    C219   C223      1.38963      .   S
    C219   H97       1.08980      .   S
    C224   H102      1.08895      .   S
    C222   H100      1.08893      .   S
    C225   H103      1.08887      .   S
    C225   C251      1.28610      .   S
    C223   H101      1.08890      .   S
    H69    C205      1.09787      .   S
    H71    C203      1.09783  1_655   S
    H70    C202      1.09792  1_655   S
    H68    C204      1.09794      .   S
    H66    C204      1.09813      .   S
    H64    C202      1.09813      .   S
    H67    C205      1.09810      .   S
    H65    C203      1.09810      .   S
    C202   S272      1.80070      .   S
    C202   C138      1.51943  1_455   S
    C204   S274      1.80070      .   S
    C204   C136      1.51944      .   S
    C203   S273      1.80100      .   S
    C203   C139      1.51942  1_455   S
    C205   S275      1.80115      .   S
    C205   C137      1.51943      .   S
    O314   S262      1.50282      .   S
    O312   S260      1.50294      .   S
    O313   S261      1.50258      .   S
    O315   S263      1.50255      .   S
    S272   O344      1.46412      .   S
    S272   O348      1.50257      .   S
    S274   O346      1.46410      .   S
    S274   O350      1.50259      .   S
    S275   O347      1.46470      .   S
    S275   O351      1.50346      .   S
    S273   O345      1.46380      .   S
    S273   O349      1.50287      .   S
    O310   S262      1.46404      .   S
    O308   S260      1.46420      .   S
    O311   S263      1.46438      .   S
    O309   S261      1.46409      .   S
    S262   C138      1.80100      .   S
    S262   O306      1.49823      .   S
    S260   C136      1.80101      .   S
    S260   O304      1.49791      .   S
    S261   C137      1.80069      .   S
    S261   O305      1.49787      .   S
    S263   C139      1.80071      .   S
    S263   O307      1.49788      .   S
    C138   H2        1.09812      .   S
    C138   H4        1.09781  1_655   S
    C136   H0        1.09812      .   S
    C136   H6        1.09784      .   S
    C139   H3        1.09809      .   S
    C139   H5        1.09794  1_655   S
    C137   H1        1.09813      .   S
    C137   H7        1.09796      .   S
    H34    C158      1.08888      .   S
    H32    C156      1.08886      .   S
    H33    C157      1.08896      .   S
    H35    C159      1.08894      .   S
    H28    C152      1.08983      .   S
    H30    C154      1.08983      .   S
    H29    C153      1.08978      .   S
    H31    C155      1.08977      .   S
    H51    C187      1.09206      .   S
    H49    C82       1.09213      .   S
    H48    C81       1.09199      .   S
    H50    C83       1.09202      .   S
    H43    C175      1.08881      .   S
    H41    C173      1.08961      .   S
    H42    C174      1.08955      .   S
    H40    C172      1.08957      .   S
    C156   C152      1.38963      .   S
    C156   C164      1.40402      .   S
    C158   C154      1.38964      .   S
    C158   C166      1.40397      .   S
    C159   C155      1.38960      .   S
    C159   C167      1.40402      .   S
    C157   C153      1.38958      .   S
    C157   C165      1.40404      .   S
    C152   N286      1.34970      .   S
    C154   N288      1.34973      .   S
    C153   N287      1.34970      .   S
    C155   N289      1.34971      .   S
    C187   C175      1.39272      .   S
    C187   N293      1.34899      .   S
    C82    C173      1.39263      .   S
    C82    N291      1.34883      .   S
    C175   C171      1.40552      .   S
    C173   C169      1.40484      .   S
    C83    C174      1.39249      .   S
    C83    N292      1.34887      .   S
    C81    C172      1.39250      .   S
    C81    N290      1.34883      .   S
    C174   C170      1.40395      .   S
    C172   C168      1.40479      .   S
    N291   C199      1.34887      .   S
    N293   C201      1.34882      .   S
    N290   C198      1.34891      .   S
    N292   C200      1.34876      .   S
    N288   C150      1.34899      .   S
    N286   C148      1.34898      .   S
    N289   C151      1.34902      .   S
    N287   C149      1.34902      .   S
    C164   C169      1.48145  1_545   S
    C164   C160      1.40353      .   S
    C166   C171      1.48145  1_545   S
    C166   C162      1.40357      .   S
    C171   C80       1.40503      .   S
    C169   C177      1.40500      .   S
    C167   C170      1.48124      .   S
    C167   C163      1.40331      .   S
    C165   C168      1.48139      .   S
    C165   C161      1.40330      .   S
    C170   C178      1.40604      .   S
    C168   C176      1.40506      .   S
    O337   S269      1.45925      .   S
    O339   S271      1.45924      .   S
    O338   S270      1.45955      .   S
    O336   S268      1.45954      .   S
    C199   C177      1.38976      .   S
    C199   H61       1.08997      .   S
    C201   C80       1.38978      .   S
    C201   H63       1.08995      .   S
    C200   C178      1.38983      .   S
    C200   H62       1.09006      .   S
    C198   C176      1.38982      .   S
    C198   H60       1.08996      .   S
    C177   H45       1.08935      .   S
    C80    H47       1.08932      .   S
    C178   H46       1.08934      .   S
    C176   H44       1.08933      .   S
    H18    C144      1.09784  1_655   S
    H16    C146      1.09785      .   S
    H19    C145      1.09787  1_655   S
    H17    C147      1.09790      .   S
    O332   S268      1.50023      .   S
    O334   S270      1.50023      .   S
    O333   S269      1.50049      .   S
    O335   S271      1.50043      .   S
    C150   C162      1.38943      .   S
    C150   H26       1.08745      .   S
    C148   C160      1.38944      .   S
    C148   H24       1.08820      .   S
    C149   C161      1.38944      .   S
    C149   H25       1.08803      .   S
    C151   C163      1.38943      .   S
    C151   H27       1.08804      .   S
    C160   H36       1.08840      .   S
    C162   H38       1.08855      .   S
    C161   H37       1.08867      .   S
    C163   H39       1.08866      .   S
    S270   C146      1.79529      .   S
    S270   O330      1.49661      .   S
    S268   C144      1.79527      .   S
    S268   O328      1.49699      .   S
    S269   C145      1.79499      .   S
    S269   O329      1.49721      .   S
    S271   C147      1.79498      .   S
    S271   O331      1.49723      .   S
    H9     C141      1.09669      .   S
    H11    C143      1.09670      .   S
    H8     C140      1.09678      .   S
    H10    C142      1.09679      .   S
    C146   H22       1.09646      .   S
    C146   C140      1.52019      .   S
    C144   H20       1.09646      .   S
    C144   C142      1.52016  1_455   S
    C147   H23       1.09636      .   S
    C147   C141      1.51992      .   S
    C145   H21       1.09623      .   S
    C145   C143      1.51989  1_455   S
    O320   S264      1.48653      .   S
    O322   S266      1.48651      .   S
    O321   S265      1.48699      .   S
    O323   S267      1.48700      .   S
    C143   S267      1.79535      .   S
    C143   H13       1.09843  1_655   S
    C141   S265      1.79537      .   S
    C141   H15       1.09846      .   S
    C140   S264      1.79522      .   S
    C140   H14       1.09838      .   S
    C142   S266      1.79523      .   S
    C142   H12       1.09836  1_655   S
    S267   O319      1.49765      .   S
    S267   O327      1.47405      .   S
    S265   O317      1.49765      .   S
    S265   O325      1.47404      .   S
    S266   O318      1.49759      .   S
    S266   O326      1.47416      .   S
    S264   O316      1.49755      .   S
    S264   O324      1.47418      .   S
    H53    C189      1.08765      .   S
    H52    C188      1.08765      .   S
    H126   C247      1.08783      .   S
    H127   C248      1.08783      .   S
    H57    C195      1.09070      .   S
    H56    C194      1.09050      .   S
    H130   C254      1.08976      .   S
    H131   C255      1.08977      .   S
    C189   C195      1.38957      .   S
    C188   C194      1.38945      .   S
    C247   C254      1.38989      .   S
    C247   C249      1.40666      .   S
    C248   C255      1.38990      .   S
    C248   C250      1.40667      .   S
    C255   N295      1.34955      .   S
    C254   N294      1.34956      .   S
