# CIF file generated by openbabel 2.4.90, see http://openbabel.sf.net
data_I
_chemical_name_common ''
_cell_length_a 16.978
_cell_length_b 23.612
_cell_length_c 15.943
_cell_angle_alpha 95.36
_cell_angle_beta 105.337
_cell_angle_gamma 99.088
_space_group_name_H-M_alt 'P 1'
_space_group_name_Hall 'P 1'
loop_
    _symmetry_equiv_pos_as_xyz
    x,y,z
loop_
    _atom_site_label
    _atom_site_type_symbol
    _atom_site_fract_x
    _atom_site_fract_y
    _atom_site_fract_z
    _atom_site_occupancy
    C0      C    0.25981   0.27322   0.67480   1.000
    C1      C    0.26016   0.77328   0.67531   1.000
    C2      C    0.75981   0.27322   0.67483   1.000
    C3      C    0.76016   0.77328   0.67530   1.000
    C4      C    0.23983   0.22674   0.32469   1.000
    C5      C    0.24018   0.72680   0.32517   1.000
    C6      C    0.73983   0.22674   0.32469   1.000
    C7      C    0.74018   0.72680   0.32510   1.000
    C8      C    0.25013   0.25006   0.00021   1.000
    C9      C    0.24986   0.74995   0.99980   1.000
    C10     C    0.75013   0.25006   0.00021   1.000
    C11     C    0.74986   0.74995   0.99979   1.000
    C12     C    0.48880   0.21601   0.57614   1.000
    C13     C    0.48931   0.71574   0.57635   1.000
    C14     C    0.98880   0.21601   0.57614   1.000
    C15     C    0.98931   0.71574   0.57635   1.000
    C16     C    0.03443   0.29055   0.58882   1.000
    C17     C    0.03455   0.79033   0.58882   1.000
    C18     C    0.53443   0.29055   0.58882   1.000
    C19     C    0.53455   0.79033   0.58882   1.000
    C20     C    0.42748   0.20259   0.80529   1.000
    C21     C    0.42734   0.70288   0.80428   1.000
    C22     C    0.92748   0.20259   0.80529   1.000
    C23     C    0.92734   0.70288   0.80428   1.000
    C24     C    0.00669   0.22138   0.90790   1.000
    C25     C    0.00610   0.72102   0.90732   1.000
    C26     C    0.50669   0.22138   0.90790   1.000
    C27     C    0.50610   0.72102   0.90732   1.000
    C28     C    0.49089   0.28388   0.74343   1.000
    C29     C    0.49179   0.78464   0.74412   1.000
    C30     C    0.99089   0.28388   0.74343   1.000
    C31     C    0.99179   0.78464   0.74412   1.000
    C32     C    0.06325   0.31310   0.84802   1.000
    C33     C    0.06378   0.81311   0.84920   1.000
    C34     C    0.56325   0.31310   0.84802   1.000
    C35     C    0.56379   0.81311   0.84922   1.000
    C36     C    0.24322   0.17585   0.80246   1.000
    C37     C    0.24287   0.67576   0.80282   1.000
    C38     C    0.74322   0.17585   0.80240   1.000
    C39     C    0.74287   0.67576   0.80282   1.000
    C40     C    0.29005   0.16654   0.55898   1.000
    C41     C    0.28985   0.66650   0.55941   1.000
    C42     C    0.79004   0.16654   0.55898   1.000
    C43     C    0.78985   0.66650   0.55941   1.000
    C44     C    0.29437   0.06215   0.55513   1.000
    C45     C    0.29391   0.56209   0.55542   1.000
    C46     C    0.79437   0.06215   0.55513   1.000
    C47     C    0.79390   0.56209   0.55542   1.000
    C48     C    0.24859   0.07261   0.81020   1.000
    C49     C    0.24799   0.57250   0.81044   1.000
    C50     C    0.74859   0.07261   0.81021   1.000
    C51     C    0.74799   0.57250   0.81044   1.000
    C52     C    0.35562   0.48889   0.60159   1.000
    C53     C    0.35583   0.98881   0.60103   1.000
    C54     C    0.85562   0.48889   0.60159   1.000
    C55     C    0.85582   0.98881   0.60103   1.000
    C56     C    0.18825   0.48027   0.76494   1.000
    C57     C    0.18901   0.98048   0.76498   1.000
    C58     C    0.68825   0.48027   0.76494   1.000
    C59     C    0.68900   0.98047   0.76498   1.000
    C60     C    0.34776   0.38301   0.59970   1.000
    C61     C    0.34777   0.88292   0.59914   1.000
    C62     C    0.84775   0.38301   0.59970   1.000
    C63     C    0.84776   0.88292   0.59914   1.000
    C64     C    0.11893   0.02705   0.99123   1.000
    C65     C    0.11911   0.52717   0.99183   1.000
    C66     C    0.61892   0.02705   0.99123   1.000
    C67     C    0.61910   0.52716   0.99181   1.000
    C68     C    0.38186   0.05804   0.00768   1.000
    C69     C    0.38191   0.55797   0.00762   1.000
    C70     C    0.88186   0.05804   0.00768   1.000
    C71     C    0.88191   0.55797   0.00763   1.000
    C72     C    0.12452   0.13164   0.99255   1.000
    C73     C    0.12481   0.63174   0.99315   1.000
    C74     C    0.62452   0.13164   0.99254   1.000
    C75     C    0.62480   0.63174   0.99314   1.000
    C76     C    0.37590   0.16065   0.00507   1.000
    C77     C    0.37612   0.66062   0.00530   1.000
    C78     C    0.87590   0.16065   0.00507   1.000
    C79     C    0.87612   0.66062   0.00531   1.000
    C80     C    0.19114   0.37484   0.76028   1.000
    C81     C    0.19174   0.87504   0.76036   1.000
    C82     C    0.69114   0.37484   0.76028   1.000
    C83     C    0.69173   0.87504   0.76036   1.000
    C84     C    0.01069   0.28428   0.42365   1.000
    C85     C    0.01119   0.78401   0.42386   1.000
    C86     C    0.51068   0.28428   0.42365   1.000
    C87     C    0.51119   0.78401   0.42386   1.000
    C88     C    0.46544   0.20969   0.41118   1.000
    C89     C    0.46556   0.70946   0.41118   1.000
    C90     C    0.96544   0.20969   0.41118   1.000
    C91     C    0.96556   0.70946   0.41118   1.000
    C92     C    0.07264   0.29714   0.19572   1.000
    C93     C    0.07251   0.79743   0.19471   1.000
    C94     C    0.57264   0.29714   0.19572   1.000
    C95     C    0.57251   0.79743   0.19470   1.000
    C96     C    0.49388   0.27899   0.09268   1.000
    C97     C    0.49329   0.77863   0.09210   1.000
    C98     C    0.99388   0.27899   0.09268   1.000
    C99     C    0.99330   0.77863   0.09210   1.000
    C100    C    0.00820   0.21538   0.25588   1.000
    C101    C    0.00910   0.71614   0.25657   1.000
    C102    C    0.50820   0.21538   0.25588   1.000
    C103    C    0.50910   0.71614   0.25657   1.000
    C104    C    0.43620   0.18690   0.15079   1.000
    C105    C    0.43673   0.68692   0.15198   1.000
    C106    C    0.93620   0.18690   0.15079   1.000
    C107    C    0.93674   0.68692   0.15198   1.000
    C108    C    0.25712   0.32425   0.19718   1.000
    C109    C    0.25677   0.82417   0.19754   1.000
    C110    C    0.75712   0.32425   0.19718   1.000
    C111    C    0.75677   0.82417   0.19754   1.000
    C112    C    0.21014   0.33351   0.44059   1.000
    C113    C    0.20995   0.83348   0.44102   1.000
    C114    C    0.71014   0.33351   0.44059   1.000
    C115    C    0.70994   0.83347   0.44102   1.000
    C116    C    0.20609   0.43793   0.44458   1.000
    C117    C    0.20562   0.93787   0.44487   1.000
    C118    C    0.70608   0.43793   0.44458   1.000
    C119    C    0.70562   0.93786   0.44487   1.000
    C120    C    0.25200   0.42752   0.18956   1.000
    C121    C    0.25140   0.92741   0.18979   1.000
    C122    C    0.75200   0.42752   0.18956   1.000
    C123    C    0.75140   0.92740   0.18979   1.000
    C124    C    0.14417   0.01120   0.39897   1.000
    C125    C    0.14437   0.51113   0.39841   1.000
    C126    C    0.64416   0.01120   0.39897   1.000
    C127    C    0.64437   0.51113   0.39841   1.000
    C128    C    0.31098   0.01954   0.23502   1.000
    C129    C    0.31173   0.51974   0.23506   1.000
    C130    C    0.81098   0.01954   0.23502   1.000
    C131    C    0.81173   0.51974   0.23506   1.000
    C132    C    0.15222   0.11710   0.40086   1.000
    C133    C    0.15224   0.61700   0.40030   1.000
    C134    C    0.65222   0.11709   0.40086   1.000
    C135    C    0.65224   0.61700   0.40030   1.000
    C136    C    0.38089   0.47285   0.00818   1.000
    C137    C    0.38106   0.97296   0.00877   1.000
    C138    C    0.88088   0.47285   0.00810   1.000
    C139    C    0.88106   0.97296   0.00877   1.000
    C140    C    0.11808   0.44204   0.99238   1.000
    C141    C    0.11813   0.94197   0.99232   1.000
    C142    C    0.61808   0.44204   0.99239   1.000
    C143    C    0.61813   0.94197   0.99233   1.000
    C144    C    0.37519   0.36827   0.00686   1.000
    C145    C    0.37547   0.86837   0.00745   1.000
    C146    C    0.87518   0.36827   0.00685   1.000
    C147    C    0.87546   0.86837   0.00744   1.000
    C148    C    0.12387   0.33940   0.99470   1.000
    C149    C    0.12409   0.83936   0.99493   1.000
    C150    C    0.62387   0.33940   0.99470   1.000
    C151    C    0.62409   0.83936   0.99493   1.000
    C152    C    0.30825   0.12498   0.23964   1.000
    C153    C    0.30885   0.62517   0.23972   1.000
    C154    C    0.80825   0.12498   0.23964   1.000
    C155    C    0.80884   0.62517   0.23972   1.000
    C156    C    0.48960   0.25489   0.54336   1.000
    C157    C    0.48984   0.75457   0.54344   1.000
    C158    C    0.98960   0.25489   0.54336   1.000
    C159    C    0.98984   0.75457   0.54344   1.000
    C160    C    0.47123   0.23855   0.85101   1.000
    C161    C    0.47106   0.73857   0.85060   1.000
    C162    C    0.97123   0.23855   0.85101   1.000
    C163    C    0.97106   0.73857   0.85060   1.000
    C164    C    0.02710   0.27308   0.80580   1.000
    C165    C    0.02755   0.77336   0.80634   1.000
    C166    C    0.52710   0.27308   0.80580   1.000
    C167    C    0.52755   0.77336   0.80634   1.000
    C168    C    0.25445   0.14926   0.74887   1.000
    C169    C    0.25407   0.64919   0.74921   1.000
    C170    C    0.75445   0.14926   0.74887   1.000
    C171    C    0.75407   0.64919   0.74921   1.000
    C172    C    0.28070   0.14399   0.61320   1.000
    C173    C    0.28041   0.64395   0.61359   1.000
    C174    C    0.78070   0.14399   0.61320   1.000
    C175    C    0.78041   0.64395   0.61359   1.000
    C176    C    0.28380   0.08547   0.61214   1.000
    C177    C    0.28336   0.58541   0.61245   1.000
    C178    C    0.78380   0.08547   0.61214   1.000
    C179    C    0.78335   0.58541   0.61245   1.000
    C180    C    0.25696   0.09097   0.75231   1.000
    C181    C    0.25643   0.59088   0.75257   1.000
    C182    C    0.75695   0.09097   0.75231   1.000
    C183    C    0.75643   0.59088   0.75257   1.000
    C184    C    0.27143   0.05725   0.68262   1.000
    C185    C    0.27094   0.55717   0.68290   1.000
    C186    C    0.77144   0.05725   0.68262   1.000
    C187    C    0.77094   0.55717   0.68290   1.000
    C188    C    0.27175   0.49454   0.68309   1.000
    C189    C    0.27224   0.99462   0.68283   1.000
    C190    C    0.77175   0.49454   0.68300   1.000
    C191    C    0.77224   0.99462   0.68283   1.000
    C192    C    0.31697   0.46557   0.63679   1.000
    C193    C    0.31725   0.96556   0.63637   1.000
    C194    C    0.81697   0.46557   0.63679   1.000
    C195    C    0.81725   0.96556   0.63630   1.000
    C196    C    0.22598   0.46104   0.72881   1.000
    C197    C    0.22658   0.96117   0.72871   1.000
    C198    C    0.72598   0.46104   0.72881   1.000
    C199    C    0.72657   0.96117   0.72871   1.000
    C200    C    0.31390   0.40627   0.63643   1.000
    C201    C    0.31408   0.90624   0.63601   1.000
    C202    C    0.81390   0.40627   0.63643   1.000
    C203    C    0.81407   0.90624   0.63600   1.000
    C204    C    0.17800   0.05447   0.99514   1.000
    C205    C    0.17816   0.55454   0.99556   1.000
    C206    C    0.67799   0.05447   0.99513   1.000
    C207    C    0.67816   0.55454   0.99554   1.000
    C208    C    0.32268   0.07126   0.00424   1.000
    C209    C    0.32277   0.57124   0.00432   1.000
    C210    C    0.82268   0.07126   0.00424   1.000
    C211    C    0.82277   0.57124   0.00431   1.000
    C212    C    0.25022   0.03147   0.99992   1.000
    C213    C    0.25029   0.53149   0.00000   1.000
    C214    C    0.75022   0.03147   0.99991   1.000
    C215    C    0.75030   0.53149   0.00000   1.000
    C216    C    0.18035   0.11360   0.99561   1.000
    C217    C    0.18059   0.61367   0.99608   1.000
    C218    C    0.68035   0.11359   0.99561   1.000
    C219    C    0.68059   0.61367   0.99600   1.000
    C220    C    0.32047   0.12983   0.00391   1.000
    C221    C    0.32065   0.62983   0.00413   1.000
    C222    C    0.82046   0.12983   0.00391   1.000
    C223    C    0.82065   0.62983   0.00415   1.000
    C224    C    0.22647   0.40209   0.72606   1.000
    C225    C    0.22695   0.90222   0.72596   1.000
    C226    C    0.72646   0.40209   0.72605   1.000
    C227    C    0.72695   0.90221   0.72596   1.000
    C228    C    0.01015   0.24545   0.45656   1.000
    C229    C    0.01038   0.74512   0.45664   1.000
    C230    C    0.51015   0.24545   0.45656   1.000
    C231    C    0.51038   0.74512   0.45664   1.000
    C232    C    0.02892   0.26144   0.14900   1.000
    C233    C    0.02876   0.76146   0.14899   1.000
    C234    C    0.52892   0.26144   0.14900   1.000
    C235    C    0.52876   0.76146   0.14899   1.000
    C236    C    0.47243   0.22665   0.19366   1.000
    C237    C    0.47289   0.72694   0.19419   1.000
    C238    C    0.97244   0.22665   0.19360   1.000
    C239    C    0.97289   0.72694   0.19419   1.000
    C240    C    0.24591   0.35082   0.25079   1.000
    C241    C    0.24553   0.85075   0.25113   1.000
    C242    C    0.74591   0.35082   0.25078   1.000
    C243    C    0.74553   0.85075   0.25113   1.000
    C244    C    0.21958   0.35607   0.38641   1.000
    C245    C    0.21928   0.85603   0.38680   1.000
    C246    C    0.71958   0.35607   0.38641   1.000
    C247    C    0.71928   0.85602   0.38680   1.000
    C248    C    0.21664   0.41461   0.38755   1.000
    C249    C    0.21620   0.91454   0.38786   1.000
    C250    C    0.71664   0.41461   0.38755   1.000
    C251    C    0.71619   0.91454   0.38786   1.000
    C252    C    0.24356   0.40914   0.24743   1.000
    C253    C    0.24304   0.90904   0.24770   1.000
    C254    C    0.74356   0.40914   0.24743   1.000
    C255    C    0.74303   0.90904   0.24769   1.000
    C256    C    0.22906   0.44284   0.31711   1.000
    C257    C    0.22855   0.94276   0.31738   1.000
    C258    C    0.72905   0.44284   0.31710   1.000
    C259    C    0.72855   0.94276   0.31738   1.000
    C260    C    0.22775   0.00540   0.31710   1.000
    C261    C    0.22824   0.50547   0.31692   1.000
    C262    C    0.72775   0.00540   0.31717   1.000
    C263    C    0.72824   0.50547   0.31691   1.000
    C264    C    0.18274   0.03446   0.36364   1.000
    C265    C    0.18302   0.53444   0.36321   1.000
    C266    C    0.68274   0.03445   0.36363   1.000
    C267    C    0.68302   0.53444   0.36321   1.000
    C268    C    0.27341   0.03884   0.27129   1.000
    C269    C    0.27401   0.53898   0.27119   1.000
    C270    C    0.77341   0.03884   0.27129   1.000
    C271    C    0.77401   0.53898   0.27119   1.000
    C272    C    0.18592   0.09378   0.36400   1.000
    C273    C    0.18609   0.59375   0.36357   1.000
    C274    C    0.68591   0.09378   0.36400   1.000
    C275    C    0.68609   0.59375   0.36357   1.000
    C276    C    0.32183   0.44548   0.00445   1.000
    C277    C    0.32199   0.94554   0.00486   1.000
    C278    C    0.82183   0.44548   0.00446   1.000
    C279    C    0.82199   0.94554   0.00486   1.000
    C280    C    0.17722   0.42878   0.99568   1.000
    C281    C    0.17731   0.92875   0.99576   1.000
    C282    C    0.67722   0.42878   0.99569   1.000
    C283    C    0.67731   0.92875   0.99576   1.000
    C284    C    0.24970   0.46853   0.99996   1.000
    C285    C    0.24977   0.96854   0.20000   1.000
    C286    C    0.74969   0.46852   0.99993   1.000
    C287    C    0.74977   0.96854   0.40000   1.000
    C288    C    0.31940   0.38635   0.00393   1.000
    C289    C    0.31964   0.88642   0.00438   1.000
    C290    C    0.81940   0.38634   0.00390   1.000
    C291    C    0.81963   0.88642   0.00438   1.000
    C292    C    0.17934   0.37018   0.99587   1.000
    C293    C    0.17952   0.87018   0.99608   1.000
    C294    C    0.67934   0.37018   0.99585   1.000
    C295    C    0.67952   0.87018   0.99608   1.000
    C296    C    0.27304   0.09780   0.27404   1.000
    C297    C    0.27353   0.59793   0.27395   1.000
    C298    C    0.77304   0.09780   0.27404   1.000
    C299    C    0.77353   0.59793   0.27390   1.000
    C300    C    0.38911   0.27455   0.52922   1.000
    C301    C    0.38922   0.77396   0.52944   1.000
    C302    C    0.88911   0.27455   0.52920   1.000
    C303    C    0.88922   0.77396   0.52944   1.000
    C304    C    0.41058   0.28382   0.89275   1.000
    C305    C    0.41046   0.78379   0.89253   1.000
    C306    C    0.91058   0.28382   0.89275   1.000
    C307    C    0.91046   0.78379   0.89253   1.000
    C308    C    0.10127   0.23302   0.78019   1.000
    C309    C    0.10161   0.73331   0.78048   1.000
    C310    C    0.60127   0.23302   0.78019   1.000
    C311    C    0.60161   0.73331   0.78048   1.000
    C312    C    0.11077   0.22605   0.47056   1.000
    C313    C    0.11088   0.72546   0.47079   1.000
    C314    C    0.61077   0.22605   0.47056   1.000
    C315    C    0.61088   0.72546   0.47070   1.000
    C316    C    0.08952   0.21622   0.10747   1.000
    C317    C    0.08941   0.71620   0.10725   1.000
    C318    C    0.58952   0.21622   0.10747   1.000
    C319    C    0.58941   0.71619   0.10725   1.000
    C320    C    0.39838   0.26670   0.21953   1.000
    C321    C    0.39872   0.76699   0.21981   1.000
    C322    C    0.89838   0.26670   0.21953   1.000
    C323    C    0.89872   0.76699   0.21981   1.000
    C324    C    0.25063   0.15113   0.00000   1.000
    C325    C    0.25085   0.65115   0.00000   1.000
    C326    C    0.75062   0.15112   0.00000   1.000
    C327    C    0.75084   0.65115   0.00000   1.000
    C328    C    0.26617   0.17571   0.68051   1.000
    C329    C    0.26591   0.67567   0.68092   1.000
    C330    C    0.76617   0.17571   0.68051   1.000
    C331    C    0.76591   0.67567   0.68092   1.000
    C332    C    0.26906   0.37465   0.68009   1.000
    C333    C    0.26932   0.87469   0.67982   1.000
    C334    C    0.76906   0.37465   0.68010   1.000
    C335    C    0.76932   0.87469   0.67983   1.000
    C336    C    0.24914   0.34886   0.99914   1.000
    C337    C    0.24936   0.84889   0.99943   1.000
    C338    C    0.74915   0.34887   0.99916   1.000
    C339    C    0.74936   0.84889   0.99943   1.000
    C340    C    0.23408   0.32434   0.31908   1.000
    C341    C    0.23383   0.82431   0.31950   1.000
    C342    C    0.73408   0.32434   0.31908   1.000
    C343    C    0.73382   0.82431   0.31949   1.000
    C344    C    0.23066   0.12533   0.32017   1.000
    C345    C    0.23092   0.62536   0.31990   1.000
    C346    C    0.73066   0.12533   0.32017   1.000
    C347    C    0.73093   0.62536   0.31990   1.000
    C348    C    0.37776   0.27592   0.61937   1.000
    C349    C    0.37798   0.77517   0.61962   1.000
    C350    C    0.87776   0.27592   0.61937   1.000
    C351    C    0.87797   0.77517   0.61962   1.000
    C352    C    0.39075   0.33053   0.49655   1.000
    C353    C    0.39051   0.82992   0.49674   1.000
    C354    C    0.89075   0.33053   0.49655   1.000
    C355    C    0.89051   0.82992   0.49670   1.000
    C356    C    0.32852   0.22550   0.46671   1.000
    C357    C    0.32873   0.72489   0.46691   1.000
    C358    C    0.82852   0.22549   0.46671   1.000
    C359    C    0.82873   0.72489   0.46691   1.000
    C360    C    0.35771   0.24351   0.93203   1.000
    C361    C    0.35680   0.74323   0.93065   1.000
    C362    C    0.85771   0.24350   0.93203   1.000
    C363    C    0.85680   0.74323   0.93065   1.000
    C364    C    0.36020   0.30668   0.81678   1.000
    C365    C    0.36092   0.80745   0.81690   1.000
    C366    C    0.86020   0.30668   0.81678   1.000
    C367    C    0.86092   0.80745   0.81690   1.000
    C368    C    0.46977   0.33004   0.95808   1.000
    C369    C    0.46973   0.82948   0.95874   1.000
    C370    C    0.96977   0.33003   0.95808   1.000
    C371    C    0.96973   0.82948   0.95874   1.000
    C372    C    0.14800   0.21684   0.86533   1.000
    C373    C    0.14742   0.71607   0.86519   1.000
    C374    C    0.64800   0.21684   0.86530   1.000
    C375    C    0.64742   0.71607   0.86519   1.000
    C376    C    0.15539   0.27669   0.74688   1.000
    C377    C    0.15663   0.77735   0.74873   1.000
    C378    C    0.65539   0.27669   0.74688   1.000
    C379    C    0.65663   0.77735   0.74874   1.000
    C380    C    0.05584   0.18252   0.71589   1.000
    C381    C    0.05616   0.68342   0.71502   1.000
    C382    C    0.55584   0.18252   0.71589   1.000
    C383    C    0.55617   0.68342   0.71502   1.000
    C384    C    0.12201   0.22485   0.38038   1.000
    C385    C    0.12223   0.72410   0.38063   1.000
    C386    C    0.62201   0.22484   0.38030   1.000
    C387    C    0.62223   0.72410   0.38063   1.000
    C388    C    0.10948   0.17009   0.50326   1.000
    C389    C    0.10923   0.66948   0.50340   1.000
    C390    C    0.60948   0.17009   0.50326   1.000
    C391    C    0.60923   0.66948   0.50344   1.000
    C392    C    0.17126   0.27512   0.53309   1.000
    C393    C    0.17147   0.77452   0.53329   1.000
    C394    C    0.67126   0.27512   0.53309   1.000
    C395    C    0.67147   0.77452   0.53329   1.000
    C396    C    0.14319   0.25678   0.06934   1.000
    C397    C    0.14228   0.75651   0.06790   1.000
    C398    C    0.64319   0.25678   0.06934   1.000
    C399    C    0.64228   0.75651   0.06790   1.000
    C400    C    0.13906   0.19256   0.18310   1.000
    C401    C    0.13979   0.69334   0.18320   1.000
    C402    C    0.63907   0.19256   0.18300   1.000
    C403    C    0.63979   0.69334   0.18322   1.000
    C404    C    0.03026   0.17053   0.04126   1.000
    C405    C    0.03022   0.66998   0.04192   1.000
    C406    C    0.53026   0.17053   0.04126   1.000
    C407    C    0.53022   0.66998   0.04192   1.000
    C408    C    0.35256   0.28393   0.13481   1.000
    C409    C    0.35199   0.78318   0.13467   1.000
    C410    C    0.85256   0.28393   0.13481   1.000
    C411    C    0.85198   0.78317   0.13467   1.000
    C412    C    0.34338   0.22267   0.25129   1.000
    C413    C    0.34459   0.72333   0.25312   1.000
    C414    C    0.84338   0.22267   0.25130   1.000
    C415    C    0.84459   0.72332   0.25312   1.000
    C416    C    0.44383   0.31659   0.28498   1.000
    C417    C    0.44414   0.81749   0.28411   1.000
    C418    C    0.94383   0.31660   0.28498   1.000
    C419    C    0.94414   0.81749   0.28411   1.000
    O420    O    0.25038   0.20060   0.00011   1.000
    O421    O    0.28555   0.14048   0.00196   1.000
    O422    O    0.21549   0.13236   0.99781   1.000
    O423    O    0.28575   0.64049   0.00207   1.000
    O424    O    0.21572   0.63241   0.99804   1.000
    O425    O    0.25036   0.70055   0.99990   1.000
    O426    O    0.75038   0.20059   0.00011   1.000
    O427    O    0.78554   0.14048   0.00196   1.000
    O428    O    0.71549   0.13236   0.99781   1.000
    O429    O    0.78575   0.64049   0.00208   1.000
    O430    O    0.71571   0.63241   0.99800   1.000
    O431    O    0.75035   0.70055   0.99989   1.000
    O432    O    0.78653   0.55136   0.00215   1.000
    O433    O    0.71423   0.54301   0.99777   1.000
    O434    O    0.74999   0.50001   0.99996   1.000
    O435    O    0.28653   0.55136   0.00216   1.000
    O436    O    0.21423   0.54301   0.99778   1.000
    O437    O    0.25000   0.50001   0.99998   1.000
    O438    O    0.19666   0.25342   0.03478   1.000
    O439    O    0.30135   0.26700   0.06751   1.000
    O440    O    0.19907   0.23345   0.93277   1.000
    O441    O    0.30392   0.24679   0.96612   1.000
    O442    O    0.24964   0.29946   0.99967   1.000
    O443    O    0.69666   0.25342   0.03478   1.000
    O444    O    0.80135   0.26700   0.06751   1.000
    O445    O    0.69907   0.23345   0.93276   1.000
    O446    O    0.80392   0.24678   0.96612   1.000
    O447    O    0.74964   0.29946   0.99969   1.000
    O448    O    0.82061   0.41591   0.00418   1.000
    O449    O    0.84729   0.37731   0.00538   1.000
    O450    O    0.78427   0.36760   0.00153   1.000
    O451    O    0.82157   0.10055   0.00407   1.000
    O452    O    0.84818   0.14524   0.00449   1.000
    O453    O    0.32157   0.10055   0.00407   1.000
    O454    O    0.34818   0.14524   0.00449   1.000
    O455    O    0.32062   0.41591   0.00419   1.000
    O456    O    0.34730   0.37731   0.00540   1.000
    O457    O    0.28427   0.36761   0.00154   1.000
    O458    O    0.32171   0.60053   0.00422   1.000
    O459    O    0.34838   0.64522   0.00472   1.000
    O460    O    0.82171   0.60053   0.00423   1.000
    O461    O    0.84838   0.64522   0.00473   1.000
    O462    O    0.35227   0.06465   0.00596   1.000
    O463    O    0.28645   0.05137   0.00208   1.000
    O464    O    0.85227   0.06465   0.00596   1.000
    O465    O    0.78645   0.05137   0.00208   1.000
    O466    O    0.85234   0.56460   0.00597   1.000
    O467    O    0.35234   0.56461   0.00597   1.000
    O468    O    0.32082   0.91598   0.00462   1.000
    O469    O    0.34755   0.87739   0.00591   1.000
    O470    O    0.28450   0.86765   0.00191   1.000
    O471    O    0.82081   0.91598   0.00462   1.000
    O472    O    0.84755   0.87739   0.00591   1.000
    O473    O    0.78450   0.86765   0.00191   1.000
    O474    O    0.35136   0.45916   0.00632   1.000
    O475    O    0.28576   0.45700   0.00221   1.000
    O476    O    0.85136   0.45916   0.00628   1.000
    O477    O    0.78576   0.45700   0.00220   1.000
    O478    O    0.85153   0.95925   0.00681   1.000
    O479    O    0.35153   0.95925   0.00681   1.000
    O480    O    0.55989   0.19337   0.07437   1.000
    O481    O    0.05989   0.19337   0.07437   1.000
    O482    O    0.05982   0.69309   0.07458   1.000
    O483    O    0.55981   0.69309   0.07458   1.000
    O484    O    0.61584   0.73635   0.08757   1.000
    O485    O    0.69607   0.75323   0.03384   1.000
    O486    O    0.11585   0.73635   0.08757   1.000
    O487    O    0.19607   0.75323   0.03385   1.000
    O488    O    0.11636   0.23650   0.08841   1.000
    O489    O    0.61636   0.23650   0.08841   1.000
    O490    O    0.51103   0.77004   0.12054   1.000
    O491    O    0.01103   0.77005   0.12054   1.000
    O492    O    0.51140   0.27022   0.12084   1.000
    O493    O    0.01140   0.27021   0.12084   1.000
    O494    O    0.05909   0.73883   0.12812   1.000
    O495    O    0.11460   0.70477   0.14522   1.000
    O496    O    0.55909   0.73883   0.12812   1.000
    O497    O    0.61460   0.70477   0.14523   1.000
    O498    O    0.05922   0.23883   0.12823   1.000
    O499    O    0.11429   0.20439   0.14528   1.000
    O500    O    0.55922   0.23883   0.12823   1.000
    O501    O    0.61430   0.20439   0.14524   1.000
    O502    O    0.37535   0.77508   0.17724   1.000
    O503    O    0.30092   0.76656   0.06724   1.000
    O504    O    0.87535   0.77508   0.17724   1.000
    O505    O    0.80092   0.76656   0.06723   1.000
    O506    O    0.37547   0.27532   0.17717   1.000
    O507    O    0.87547   0.27532   0.17717   1.000
    O508    O    0.50082   0.74420   0.17159   1.000
    O509    O    0.55064   0.77944   0.17185   1.000
    O510    O    0.00082   0.74420   0.17159   1.000
    O511    O    0.05063   0.77945   0.17185   1.000
    O512    O    0.50068   0.24405   0.17133   1.000
    O513    O    0.55078   0.27929   0.17236   1.000
    O514    O    0.00068   0.24405   0.17130   1.000
    O515    O    0.05078   0.27929   0.17236   1.000
    O516    O    0.45432   0.20677   0.17223   1.000
    O517    O    0.95432   0.20677   0.17220   1.000
    O518    O    0.45481   0.70693   0.17309   1.000
    O519    O    0.95481   0.70693   0.17309   1.000
    O520    O    0.68945   0.20965   0.25384   1.000
    O521    O    0.18945   0.20965   0.25389   1.000
    O522    O    0.18998   0.71007   0.25419   1.000
    O523    O    0.68998   0.71007   0.25416   1.000
    O524    O    0.24778   0.41833   0.21850   1.000
    O525    O    0.74778   0.41833   0.21850   1.000
    O526    O    0.74722   0.91822   0.21874   1.000
    O527    O    0.25059   0.94797   0.19489   1.000
    O528    O    0.93541   0.24667   0.20656   1.000
    O529    O    0.99032   0.22101   0.22474   1.000
    O530    O    0.43541   0.24668   0.20660   1.000
    O531    O    0.49032   0.22101   0.22477   1.000
    O532    O    0.43580   0.74696   0.20700   1.000
    O533    O    0.49100   0.72154   0.22538   1.000
    O534    O    0.93580   0.74697   0.20700   1.000
    O535    O    0.99099   0.72154   0.22538   1.000
    O536    O    0.75151   0.33753   0.22398   1.000
    O537    O    0.25152   0.33754   0.22399   1.000
    O538    O    0.75115   0.83746   0.22434   1.000
    O539    O    0.25115   0.83746   0.22434   1.000
    O540    O    0.37088   0.24468   0.23541   1.000
    O541    O    0.42111   0.29165   0.25226   1.000
    O542    O    0.87088   0.24468   0.23542   1.000
    O543    O    0.92111   0.29165   0.25226   1.000
    O544    O    0.37166   0.74516   0.23647   1.000
    O545    O    0.42143   0.79224   0.25196   1.000
    O546    O    0.87165   0.74516   0.23647   1.000
    O547    O    0.92143   0.79224   0.25196   1.000
    O548    O    0.79220   0.02919   0.25316   1.000
    O549    O    0.29220   0.02919   0.25316   1.000
    O550    O    0.79287   0.52936   0.25312   1.000
    O551    O    0.29287   0.52936   0.25312   1.000
    O552    O    0.79064   0.11139   0.25684   1.000
    O553    O    0.29065   0.11139   0.25684   1.000
    O554    O    0.29119   0.61155   0.25684   1.000
    O555    O    0.79118   0.61155   0.25681   1.000
    O556    O    0.24474   0.37998   0.24911   1.000
    O557    O    0.23631   0.42599   0.28227   1.000
    O558    O    0.74474   0.37998   0.24910   1.000
    O559    O    0.73631   0.42599   0.28226   1.000
    O560    O    0.74428   0.87990   0.24941   1.000
    O561    O    0.73579   0.92590   0.28253   1.000
    O562    O    0.24429   0.87990   0.24942   1.000
    O563    O    0.23579   0.92590   0.28254   1.000
    O564    O    0.74000   0.33758   0.28493   1.000
    O565    O    0.24000   0.33758   0.28493   1.000
    O566    O    0.23968   0.83753   0.28532   1.000
    O567    O    0.73968   0.83753   0.28531   1.000
    O568    O    0.29160   0.22470   0.28799   1.000
    O569    O    0.79160   0.22470   0.28800   1.000
    O570    O    0.29239   0.72506   0.28914   1.000
    O571    O    0.79238   0.72506   0.28911   1.000
    O572    O    0.77377   0.56845   0.27254   1.000
    O573    O    0.75112   0.52223   0.29405   1.000
    O574    O    0.27377   0.56845   0.27257   1.000
    O575    O    0.25113   0.52223   0.29406   1.000
    O576    O    0.27323   0.06832   0.27266   1.000
    O577    O    0.25058   0.02212   0.29420   1.000
    O578    O    0.77322   0.06832   0.27266   1.000
    O579    O    0.75058   0.02212   0.29423   1.000
    O580    O    0.75223   0.61164   0.29690   1.000
    O581    O    0.25223   0.61165   0.29692   1.000
    O582    O    0.75185   0.11156   0.29711   1.000
    O583    O    0.25185   0.11156   0.29711   1.000
    O584    O    0.72865   0.47416   0.31701   1.000
    O585    O    0.70563   0.51996   0.34006   1.000
    O586    O    0.22865   0.47416   0.31702   1.000
    O587    O    0.20563   0.51996   0.34007   1.000
    O588    O    0.22815   0.97408   0.31724   1.000
    O589    O    0.20525   0.01993   0.34037   1.000
    O590    O    0.72284   0.42872   0.35233   1.000
    O591    O    0.22285   0.42872   0.35233   1.000
    O592    O    0.72815   0.97408   0.31728   1.000
    O593    O    0.70524   0.01992   0.34040   1.000
    O594    O    0.73876   0.98697   0.35858   1.000
    O595    O    0.22237   0.92865   0.35262   1.000
    O596    O    0.72237   0.92865   0.35262   1.000
    O597    O    0.73916   0.95565   0.35869   1.000
    O598    O    0.23695   0.27554   0.32188   1.000
    O599    O    0.22683   0.34020   0.35274   1.000
    O600    O    0.73696   0.27554   0.32188   1.000
    O601    O    0.72683   0.34020   0.35274   1.000
    O602    O    0.73700   0.77555   0.32229   1.000
    O603    O    0.72655   0.84017   0.35314   1.000
    O604    O    0.23701   0.77555   0.32234   1.000
    O605    O    0.22656   0.84017   0.35315   1.000
    O606    O    0.73555   0.67608   0.32250   1.000
    O607    O    0.70851   0.60956   0.34174   1.000
    O608    O    0.23555   0.67608   0.32254   1.000
    O609    O    0.20851   0.60956   0.34174   1.000
    O610    O    0.73524   0.17603   0.32243   1.000
    O611    O    0.70829   0.10955   0.34208   1.000
    O612    O    0.23525   0.17603   0.32243   1.000
    O613    O    0.20829   0.10955   0.34208   1.000
    O614    O    0.68092   0.22579   0.35250   1.000
    O615    O    0.78417   0.22611   0.39570   1.000
    O616    O    0.18092   0.22579   0.35253   1.000
    O617    O    0.28417   0.22612   0.39570   1.000
    O618    O    0.68120   0.72545   0.35287   1.000
    O619    O    0.78445   0.72584   0.39601   1.000
    O620    O    0.18120   0.72545   0.35290   1.000
    O621    O    0.28445   0.72584   0.39604   1.000
    O622    O    0.68456   0.56410   0.36339   1.000
    O623    O    0.66370   0.52278   0.38081   1.000
    O624    O    0.18456   0.56410   0.36339   1.000
    O625    O    0.16370   0.52278   0.38081   1.000
    O626    O    0.16917   0.60538   0.38193   1.000
    O627    O    0.66916   0.60538   0.38193   1.000
    O628    O    0.68433   0.06411   0.36381   1.000
    O629    O    0.66345   0.02283   0.38130   1.000
    O630    O    0.18433   0.06412   0.36382   1.000
    O631    O    0.16345   0.02283   0.38131   1.000
    O632    O    0.16907   0.10544   0.38243   1.000
    O633    O    0.66907   0.10543   0.38243   1.000
    O634    O    0.61639   0.22545   0.42543   1.000
    O635    O    0.11639   0.22545   0.42547   1.000
    O636    O    0.61655   0.72478   0.42567   1.000
    O637    O    0.11655   0.72478   0.42571   1.000
    O638    O    0.71811   0.38534   0.38698   1.000
    O639    O    0.71486   0.34479   0.41350   1.000
    O640    O    0.21811   0.38534   0.38698   1.000
    O641    O    0.21486   0.34479   0.41350   1.000
    O642    O    0.71774   0.88528   0.38733   1.000
    O643    O    0.71461   0.84475   0.41391   1.000
    O644    O    0.21774   0.88528   0.38733   1.000
    O645    O    0.21461   0.84475   0.41391   1.000
    O646    O    0.71136   0.42627   0.41607   1.000
    O647    O    0.21136   0.42627   0.41607   1.000
    O648    O    0.71090   0.92620   0.41636   1.000
    O649    O    0.73298   0.94154   0.39393   1.000
    O650    O    0.21091   0.92620   0.41636   1.000
    O651    O    0.48797   0.72729   0.43391   1.000
    O652    O    0.98797   0.72729   0.43391   1.000
    O653    O    0.98779   0.22757   0.43387   1.000
    O654    O    0.48779   0.22757   0.43387   1.000
    O655    O    0.51042   0.26486   0.44011   1.000
    O656    O    0.01042   0.26486   0.44011   1.000
    O657    O    0.51079   0.76457   0.44025   1.000
    O658    O    0.01079   0.76457   0.44025   1.000
    O659    O    0.06046   0.23575   0.46356   1.000
    O660    O    0.99988   0.25017   0.49996   1.000
    O661    O    0.56046   0.23575   0.46356   1.000
    O662    O    0.49988   0.25017   0.49996   1.000
    O663    O    0.06063   0.73529   0.46371   1.000
    O664    O    0.00011   0.74985   0.50004   1.000
    O665    O    0.56063   0.73529   0.46367   1.000
    O666    O    0.50011   0.74985   0.50004   1.000
    O667    O    0.85882   0.25002   0.49796   1.000
    O668    O    0.35881   0.25002   0.49797   1.000
    O669    O    0.35897   0.74943   0.49818   1.000
    O670    O    0.85897   0.74943   0.49818   1.000
    O671    O    0.11012   0.19807   0.48691   1.000
    O672    O    0.14101   0.25059   0.50182   1.000
    O673    O    0.61012   0.19807   0.48691   1.000
    O674    O    0.64101   0.25059   0.50182   1.000
    O675    O    0.61005   0.69747   0.48707   1.000
    O676    O    0.64117   0.74999   0.50200   1.000
    O677    O    0.11006   0.69747   0.48710   1.000
    O678    O    0.14117   0.74999   0.50204   1.000
    O679    O    0.88993   0.30254   0.51287   1.000
    O680    O    0.38993   0.30254   0.51289   1.000
    O681    O    0.88987   0.80194   0.51307   1.000
    O682    O    0.38987   0.80194   0.51309   1.000
    O683    O    0.93936   0.26472   0.53628   1.000
    O684    O    0.88344   0.27523   0.57429   1.000
    O685    O    0.43936   0.26472   0.53629   1.000
    O686    O    0.38344   0.27523   0.57429   1.000
    O687    O    0.43953   0.76427   0.53644   1.000
    O688    O    0.38360   0.77456   0.57453   1.000
    O689    O    0.93953   0.76426   0.53644   1.000
    O690    O    0.88360   0.77456   0.57453   1.000
    O691    O    0.21554   0.27417   0.60394   1.000
    O692    O    0.71553   0.27417   0.60396   1.000
    O693    O    0.71581   0.77390   0.60430   1.000
    O694    O    0.21581   0.77390   0.60430   1.000
    O695    O    0.98920   0.23545   0.55975   1.000
    O696    O    0.01202   0.27272   0.56609   1.000
    O697    O    0.48920   0.23545   0.55975   1.000
    O698    O    0.51202   0.27272   0.56609   1.000
    O699    O    0.98957   0.73515   0.55990   1.000
    O700    O    0.01219   0.77245   0.56613   1.000
    O701    O    0.48957   0.73515   0.55990   1.000
    O702    O    0.51220   0.77245   0.56613   1.000
    O703    O    0.78908   0.07381   0.58364   1.000
    O704    O    0.28909   0.07381   0.58364   1.000
    O705    O    0.28863   0.57375   0.58393   1.000
    O706    O    0.78863   0.57375   0.58393   1.000
    O707    O    0.28538   0.15526   0.58609   1.000
    O708    O    0.78537   0.15526   0.58609   1.000
    O709    O    0.28513   0.65522   0.58650   1.000
    O710    O    0.78513   0.65522   0.58650   1.000
    O711    O    0.83092   0.89458   0.61757   1.000
    O712    O    0.33092   0.89458   0.61757   1.000
    O713    O    0.33083   0.39464   0.61807   1.000
    O714    O    0.83083   0.39464   0.61807   1.000
    O715    O    0.83653   0.97718   0.61867   1.000
    O716    O    0.33654   0.97719   0.61870   1.000
    O717    O    0.83629   0.47723   0.61919   1.000
    O718    O    0.33629   0.47723   0.61919   1.000
    O719    O    0.28225   0.11473   0.61267   1.000
    O720    O    0.27762   0.07136   0.64738   1.000
    O721    O    0.78225   0.11473   0.61267   1.000
    O722    O    0.77762   0.07136   0.64738   1.000
    O723    O    0.78188   0.61468   0.61302   1.000
    O724    O    0.77714   0.57129   0.64768   1.000
    O725    O    0.28188   0.61468   0.61302   1.000
    O726    O    0.27715   0.57129   0.64768   1.000
    O727    O    0.27344   0.15985   0.64686   1.000
    O728    O    0.77343   0.15985   0.64686   1.000
    O729    O    0.27316   0.65981   0.64726   1.000
    O730    O    0.77316   0.65981   0.64726   1.000
    O731    O    0.31879   0.27457   0.64709   1.000
    O732    O    0.81879   0.27457   0.64710   1.000
    O733    O    0.31907   0.77422   0.64746   1.000
    O734    O    0.81907   0.77422   0.64746   1.000
    O735    O    0.81566   0.93590   0.63615   1.000
    O736    O    0.79170   0.89046   0.65792   1.000
    O737    O    0.31566   0.93590   0.63619   1.000
    O738    O    0.29170   0.89046   0.65792   1.000
    O739    O    0.79474   0.98009   0.65956   1.000
    O740    O    0.29474   0.98009   0.65960   1.000
    O741    O    0.81543   0.43592   0.63661   1.000
    O742    O    0.79148   0.39046   0.65827   1.000
    O743    O    0.31543   0.43592   0.63661   1.000
    O744    O    0.29148   0.39046   0.65826   1.000
    O745    O    0.79436   0.48006   0.65990   1.000
    O746    O    0.29436   0.48006   0.65994   1.000
    O747    O    0.26444   0.32393   0.67745   1.000
    O748    O    0.26299   0.22446   0.67766   1.000
    O749    O    0.20760   0.27495   0.71084   1.000
    O750    O    0.31001   0.28995   0.74579   1.000
    O751    O    0.76444   0.32393   0.67747   1.000
    O752    O    0.76299   0.22446   0.67767   1.000
    O753    O    0.70760   0.27495   0.71086   1.000
    O754    O    0.81001   0.28995   0.74580   1.000
    O755    O    0.76474   0.82398   0.67756   1.000
    O756    O    0.76303   0.72447   0.67811   1.000
    O757    O    0.70839   0.77531   0.71202   1.000
    O758    O    0.81054   0.79036   0.74610   1.000
    O759    O    0.26474   0.82398   0.67756   1.000
    O760    O    0.26303   0.72447   0.67812   1.000
    O761    O    0.20839   0.77531   0.71202   1.000
    O762    O    0.31054   0.79036   0.74611   1.000
    O763    O    0.24814   0.88845   0.70289   1.000
    O764    O    0.74813   0.88845   0.70290   1.000
    O765    O    0.24776   0.38837   0.70308   1.000
    O766    O    0.74776   0.38837   0.70307   1.000
    O767    O    0.76031   0.16248   0.71469   1.000
    O768    O    0.26031   0.16248   0.71469   1.000
    O769    O    0.75999   0.66243   0.71506   1.000
    O770    O    0.25999   0.66243   0.71506   1.000
    O771    O    0.27183   0.02593   0.68273   1.000
    O772    O    0.26420   0.07411   0.71747   1.000
    O773    O    0.77184   0.02593   0.68273   1.000
    O774    O    0.76419   0.07411   0.71747   1.000
    O775    O    0.74940   0.97789   0.70577   1.000
    O776    O    0.24941   0.97789   0.70577   1.000
    O777    O    0.77134   0.52586   0.68295   1.000
    O778    O    0.76368   0.57402   0.71774   1.000
    O779    O    0.27134   0.52586   0.68300   1.000
    O780    O    0.26368   0.57403   0.71774   1.000
    O781    O    0.74886   0.47779   0.70591   1.000
    O782    O    0.24886   0.47779   0.70595   1.000
    O783    O    0.07889   0.70837   0.74775   1.000
    O784    O    0.57889   0.70837   0.74775   1.000
    O785    O    0.57856   0.20777   0.74804   1.000
    O786    O    0.07856   0.20777   0.74804   1.000
    O787    O    0.22676   0.93169   0.72734   1.000
    O788    O    0.20935   0.88863   0.74316   1.000
    O789    O    0.72676   0.93169   0.72734   1.000
    O790    O    0.70934   0.88863   0.74316   1.000
    O791    O    0.72622   0.43156   0.72743   1.000
    O792    O    0.70880   0.38846   0.74316   1.000
    O793    O    0.22622   0.43156   0.72744   1.000
    O794    O    0.20880   0.38846   0.74317   1.000
    O795    O    0.20779   0.97082   0.74684   1.000
    O796    O    0.70779   0.97082   0.74684   1.000
    O797    O    0.70712   0.47065   0.74687   1.000
    O798    O    0.20712   0.47065   0.74687   1.000
    O799    O    0.00899   0.27848   0.77461   1.000
    O800    O    0.50899   0.27848   0.77461   1.000
    O801    O    0.00967   0.77900   0.77523   1.000
    O802    O    0.50967   0.77900   0.77523   1.000
    O803    O    0.12833   0.25485   0.76353   1.000
    O804    O    0.62833   0.25485   0.76353   1.000
    O805    O    0.12912   0.75533   0.76460   1.000
    O806    O    0.62912   0.75533   0.76461   1.000
    O807    O    0.75570   0.12012   0.75059   1.000
    O808    O    0.74884   0.16255   0.77564   1.000
    O809    O    0.25571   0.12012   0.75059   1.000
    O810    O    0.24884   0.16256   0.77566   1.000
    O811    O    0.25525   0.62004   0.75089   1.000
    O812    O    0.24847   0.66248   0.77602   1.000
    O813    O    0.75525   0.62003   0.75089   1.000
    O814    O    0.74847   0.66248   0.77602   1.000
    O815    O    0.25277   0.08179   0.78126   1.000
    O816    O    0.75277   0.08179   0.78126   1.000
    O817    O    0.25221   0.58169   0.78151   1.000
    O818    O    0.75221   0.58169   0.78151   1.000
    O819    O    0.56418   0.25305   0.79300   1.000
    O820    O    0.62463   0.22493   0.82275   1.000
    O821    O    0.06418   0.25305   0.79300   1.000
    O822    O    0.12463   0.22493   0.82276   1.000
    O823    O    0.06458   0.75334   0.79341   1.000
    O824    O    0.12451   0.72469   0.82283   1.000
    O825    O    0.56458   0.75334   0.79341   1.000
    O826    O    0.62451   0.72469   0.82283   1.000
    O827    O    0.44920   0.72072   0.82744   1.000
    O828    O    0.94920   0.72072   0.82744   1.000
    O829    O    0.44935   0.22057   0.82815   1.000
    O830    O    0.94935   0.22057   0.82815   1.000
    O831    O    0.54518   0.29309   0.82691   1.000
    O832    O    0.49916   0.25582   0.82841   1.000
    O833    O    0.04518   0.29309   0.82691   1.000
    O834    O    0.99916   0.25581   0.82841   1.000
    O835    O    0.54567   0.79324   0.82778   1.000
    O836    O    0.49931   0.75596   0.82847   1.000
    O837    O    0.04567   0.79324   0.82777   1.000
    O838    O    0.99931   0.75597   0.82847   1.000
    O839    O    0.38539   0.29525   0.85476   1.000
    O840    O    0.88539   0.29525   0.85476   1.000
    O841    O    0.38569   0.79562   0.85472   1.000
    O842    O    0.88569   0.79562   0.85472   1.000
    O843    O    0.94076   0.76118   0.87157   1.000
    O844    O    0.98858   0.72979   0.87896   1.000
    O845    O    0.44076   0.76118   0.87157   1.000
    O846    O    0.48858   0.72979   0.87896   1.000
    O847    O    0.44090   0.26119   0.87188   1.000
    O848    O    0.48896   0.22997   0.87945   1.000
    O849    O    0.94090   0.26119   0.87188   1.000
    O850    O    0.98896   0.22997   0.87945   1.000
    O851    O    0.19864   0.73301   0.93249   1.000
    O852    O    0.69864   0.73301   0.93249   1.000
    O853    O    0.88363   0.76351   0.91159   1.000
    O854    O    0.94010   0.80664   0.92564   1.000
    O855    O    0.38363   0.76351   0.91159   1.000
    O856    O    0.44010   0.80664   0.92564   1.000
    O857    O    0.88414   0.26366   0.91239   1.000
    O858    O    0.94017   0.30693   0.92542   1.000
    O859    O    0.38414   0.26366   0.91239   1.000
    O860    O    0.44018   0.30693   0.92542   1.000
    O861    O    0.30333   0.74659   0.96522   1.000
    O862    O    0.80333   0.74659   0.96522   1.000
    O863    O    0.64846   0.04076   0.99318   1.000
    O864    O    0.14846   0.04076   0.99318   1.000
    O865    O    0.64863   0.54085   0.99367   1.000
    O866    O    0.14863   0.54085   0.99369   1.000
    O867    O    0.14772   0.93536   0.99404   1.000
    O868    O    0.64772   0.93536   0.99405   1.000
    O869    O    0.14765   0.43541   0.99403   1.000
    O870    O    0.64765   0.43541   0.99404   1.000
    O871    O    0.65243   0.12262   0.99408   1.000
    O872    O    0.15244   0.12262   0.99408   1.000
    O873    O    0.65269   0.62270   0.99457   1.000
    O874    O    0.15270   0.62270   0.99461   1.000
    O875    O    0.15161   0.35479   0.99528   1.000
    O876    O    0.65160   0.35479   0.99527   1.000
    O877    O    0.15181   0.85477   0.99550   1.000
    O878    O    0.65180   0.85477   0.99550   1.000
    O879    O    0.67917   0.08403   0.99537   1.000
    O880    O    0.71411   0.04297   0.99752   1.000
    O881    O    0.17917   0.08403   0.99538   1.000
    O882    O    0.21411   0.04297   0.99753   1.000
    O883    O    0.67937   0.58410   0.99577   1.000
    O884    O    0.17937   0.58410   0.99582   1.000
    O885    O    0.17828   0.39948   0.99578   1.000
    O886    O    0.21346   0.44865   0.99782   1.000
    O887    O    0.67828   0.39948   0.99577   1.000
    O888    O    0.71345   0.44865   0.99781   1.000
    O889    O    0.17842   0.89946   0.99592   1.000
    O890    O    0.67841   0.89946   0.99592   1.000
    O891    O    0.71424   0.35952   0.99750   1.000
    O892    O    0.21424   0.35952   0.99750   1.000
    O893    O    0.21444   0.85953   0.99776   1.000
    O894    O    0.71444   0.85953   0.99776   1.000
    O895    O    0.24961   0.79942   0.99962   1.000
    O896    O    0.74961   0.79942   0.99961   1.000
loop_
    _geom_bond_atom_site_label_1
    _geom_bond_atom_site_label_2
    _geom_bond_distance
    _geom_bond_site_symmetry_2
    _ccdc_geom_bond_type
    C324   O420      1.16860      .   S
    C8     O420      1.16860      .   S
    C324   O421      0.67410      .   S
    C220   O421      0.67410      .   S
    C324   O422      0.67526  1_554   S
    C216   O422      0.67526      .   S
    C325   O423      0.67372      .   S
    C221   O423      0.67372      .   S
    C325   O424      0.67582  1_554   S
    C217   O424      0.67582      .   S
    C325   O425      1.16792  1_554   S
    C9     O425      1.16792      .   S
    C326   O426      1.16859      .   S
    C10    O426      1.16859      .   S
    C326   O427      0.67411      .   S
    C222   O427      0.67411      .   S
    C326   O428      0.67526  1_554   S
    C218   O428      0.67526      .   S
    C327   O429      0.67376      .   S
    C223   O429      0.67376      .   S
    C327   O430      0.67560  1_554   S
    C219   O430      0.67560      .   S
    C327   O431      1.16795  1_554   S
    C11    O431      1.16795      .   S
    C215   O432      0.70321      .   S
    C211   O432      0.70321      .   S
    C215   O433      0.70234  1_554   S
    C207   O433      0.70234      .   S
    C215   O434      0.74250  1_554   S
    C286   O434      0.74250      .   S
    C213   O435      0.70325      .   S
    C209   O435      0.70325      .   S
    C213   O436      0.70232  1_554   S
    C205   O436      0.70232      .   S
    C213   O437      0.74248  1_554   S
    C284   O437      0.74248      .   S
    C8     O438      1.18885      .   S
    C396   O438      1.18885      .   S
    C8     O439      1.17631      .   S
    C408   O439      1.17631      .   S
    C8     O440      1.17570  1_554   S
    C372   O440      1.17570      .   S
    C8     O441      1.18845  1_554   S
    C360   O441      1.18845      .   S
    C8     O442      1.16858  1_554   S
    C336   O442      1.16858      .   S
    C10    O443      1.18885      .   S
    C398   O443      1.18885      .   S
    C10    O444      1.17630      .   S
    C410   O444      1.17630      .   S
    C10    O445      1.17587  1_554   S
    C374   O445      1.17587      .   S
    C10    O446      1.18843  1_554   S
    C362   O446      1.18843      .   S
    C10    O447      1.16859  1_554   S
    C338   O447      1.16859      .   S
    C290   O448      0.69471      .   S
    C278   O448      0.69471      .   S
    C290   O449      0.54525      .   S
    C146   O449      0.54525      .   S
    C290   O450      0.67413      .   S
    C338   O450      0.67413  1_556   S
    C222   O451      0.69493      .   S
    C210   O451      0.69493      .   S
    C222   O452      0.54488      .   S
    C78    O452      0.54488      .   S
    C220   O453      0.69493      .   S
    C208   O453      0.69493      .   S
    C220   O454      0.54488      .   S
    C76    O454      0.54488      .   S
    C288   O455      0.69471      .   S
    C276   O455      0.69471      .   S
    C288   O456      0.54526      .   S
    C144   O456      0.54526      .   S
    C288   O457      0.67414      .   S
    C336   O457      0.67414  1_556   S
    C221   O458      0.69495      .   S
    C209   O458      0.69495      .   S
    C221   O459      0.54488      .   S
    C77    O459      0.54488      .   S
    C223   O460      0.69495      .   S
    C211   O460      0.69495      .   S
    C223   O461      0.54487      .   S
    C79    O461      0.54487      .   S
    C208   O462      0.54390      .   S
    C68    O462      0.54390      .   S
    C208   O463      0.70333      .   S
    C212   O463      0.70333  1_556   S
    C210   O464      0.54391      .   S
    C70    O464      0.54391      .   S
    C210   O465      0.70332      .   S
    C214   O465      0.70332  1_556   S
    C211   O466      0.54389      .   S
    C71    O466      0.54389      .   S
    C209   O467      0.54390      .   S
    C69    O467      0.54390      .   S
    C289   O468      0.69480      .   S
    C277   O468      0.69480      .   S
    C289   O469      0.54528      .   S
    C145   O469      0.54528      .   S
    C289   O470      0.67418      .   S
    C337   O470      0.67418  1_556   S
    C291   O471      0.69481      .   S
    C279   O471      0.69481      .   S
    C291   O472      0.54528      .   S
    C147   O472      0.54528      .   S
    C291   O473      0.67416      .   S
    C339   O473      0.67416  1_556   S
    C276   O474      0.54384      .   S
    C136   O474      0.54384      .   S
    C276   O475      0.70227      .   S
    C284   O475      0.70227  1_556   S
    C278   O476      0.54399      .   S
    C138   O476      0.54399      .   S
    C278   O477      0.70226      .   S
    C286   O477      0.70226  1_556   S
    C279   O478      0.54384      .   S
    C139   O478      0.54384      .   S
    C277   O479      0.54384      .   S
    C137   O479      0.54384      .   S
    C406   O480      0.73703      .   S
    C318   O480      0.73703      .   S
    C404   O481      0.73703      .   S
    C316   O481      0.73703      .   S
    C405   O482      0.73707      .   S
    C317   O482      0.73707      .   S
    C407   O483      0.73709      .   S
    C319   O483      0.73709      .   S
    C399   O484      0.74913      .   S
    C319   O484      0.74913      .   S
    C399   O485      1.18815      .   S
    C11    O485      1.18815  1_556   S
    C397   O486      0.74915      .   S
    C317   O486      0.74915      .   S
    C397   O487      1.18808      .   S
    C9     O487      1.18808  1_556   S
    C396   O488      0.74886      .   S
    C316   O488      0.74886      .   S
    C398   O489      0.74885      .   S
    C318   O489      0.74885      .   S
    C97    O490      0.54919      .   S
    C235   O490      0.54919      .   S
    C99    O491      0.54917  1_655   S
    C233   O491      0.54917      .   S
    C96    O492      0.54695      .   S
    C234   O492      0.54695      .   S
    C98    O493      0.54694  1_655   S
    C232   O493      0.54694      .   S
    C317   O494      0.89762      .   S
    C233   O494      0.89762      .   S
    C317   O495      0.74315      .   S
    C401   O495      0.74315      .   S
    C319   O496      0.89762      .   S
    C235   O496      0.89762      .   S
    C319   O497      0.74326      .   S
    C403   O497      0.74326      .   S
    C316   O498      0.89620      .   S
    C232   O498      0.89620      .   S
    C316   O499      0.74350      .   S
    C400   O499      0.74350      .   S
    C318   O500      0.89620      .   S
    C234   O500      0.89620      .   S
    C318   O501      0.74295      .   S
    C402   O501      0.74295      .   S
    C409   O502      0.74850      .   S
    C321   O502      0.74850      .   S
    C409   O503      1.17560      .   S
    C9     O503      1.17560  1_556   S
    C411   O504      0.74849      .   S
    C323   O504      0.74849      .   S
    C411   O505      1.17565      .   S
    C11    O505      1.17565  1_556   S
    C408   O506      0.74865      .   S
    C320   O506      0.74865      .   S
    C410   O507      0.74866      .   S
    C322   O507      0.74866      .   S
    C235   O508      0.76004      .   S
    C237   O508      0.76004      .   S
    C235   O509      0.54836      .   S
    C95    O509      0.54836      .   S
    C233   O510      0.76004      .   S
    C239   O510      0.76004  1_655   S
    C233   O511      0.54839      .   S
    C93    O511      0.54839      .   S
    C234   O512      0.76212      .   S
    C236   O512      0.76212      .   S
    C234   O513      0.54971      .   S
    C94    O513      0.54971      .   S
    C232   O514      0.76177      .   S
    C238   O514      0.76177  1_655   S
    C232   O515      0.54971      .   S
    C92    O515      0.54971      .   S
    C104   O516      0.54815      .   S
    C236   O516      0.54815      .   S
    C106   O517      0.54796      .   S
    C238   O517      0.54796      .   S
    C105   O518      0.54821      .   S
    C237   O518      0.54821      .   S
    C107   O519      0.54820      .   S
    C239   O519      0.54820      .   S
    C402   O520      1.21035      .   S
    C6     O520      1.21035      .   S
    C400   O521      1.20978      .   S
    C4     O521      1.20978      .   S
    C401   O522      1.20955      .   S
    C5     O522      1.20955      .   S
    C403   O523      1.20902      .   S
    C7     O523      1.20902      .   S
    C120   O524      0.54433      .   S
    C252   O524      0.54433      .   S
    C122   O525      0.54432      .   S
    C254   O525      0.54432      .   S
    C123   O526      0.54427      .   S
    C255   O526      0.54427      .   S
    C121   O527      0.48786      .   S
    C285   O527      0.48786      .   S
    C238   O528      0.89769      .   S
    C322   O528      0.89769      .   S
    C238   O529      0.54930      .   S
    C100   O529      0.54930  1_455   S
    C236   O530      0.89751      .   S
    C320   O530      0.89751      .   S
    C236   O531      0.54895      .   S
    C102   O531      0.54895      .   S
    C237   O532      0.89767      .   S
    C321   O532      0.89767      .   S
    C237   O533      0.54899      .   S
    C103   O533      0.54899      .   S
    C239   O534      0.89767      .   S
    C323   O534      0.89767      .   S
    C239   O535      0.54898      .   S
    C101   O535      0.54898  1_455   S
    C110   O536      0.54397      .   S
    C242   O536      0.54397      .   S
    C108   O537      0.54402      .   S
    C240   O537      0.54402      .   S
    C111   O538      0.54409      .   S
    C243   O538      0.54409      .   S
    C109   O539      0.54410      .   S
    C241   O539      0.54410      .   S
    C320   O540      0.75021      .   S
    C412   O540      0.75021      .   S
    C320   O541      0.72962      .   S
    C416   O541      0.72962      .   S
    C322   O542      0.75024      .   S
    C414   O542      0.75024      .   S
    C322   O543      0.72964      .   S
    C418   O543      0.72964      .   S
    C321   O544      0.75013      .   S
    C413   O544      0.75013      .   S
    C321   O545      0.72976      .   S
    C417   O545      0.72976      .   S
    C323   O546      0.75013      .   S
    C415   O546      0.75013      .   S
    C323   O547      0.72976      .   S
    C419   O547      0.72976      .   S
    C130   O548      0.54466      .   S
    C270   O548      0.54466      .   S
    C128   O549      0.54465      .   S
    C268   O549      0.54465      .   S
    C131   O550      0.54466      .   S
    C271   O550      0.54466      .   S
    C129   O551      0.54467      .   S
    C269   O551      0.54467      .   S
    C154   O552      0.54498      .   S
    C298   O552      0.54498      .   S
    C152   O553      0.54497      .   S
    C296   O553      0.54497      .   S
    C153   O554      0.54501      .   S
    C297   O554      0.54501      .   S
    C155   O555      0.54473      .   S
    C299   O555      0.54473      .   S
    C252   O556      0.69472      .   S
    C240   O556      0.69472      .   S
    C252   O557      0.70170      .   S
    C256   O557      0.70170      .   S
    C254   O558      0.69470      .   S
    C242   O558      0.69470      .   S
    C254   O559      0.70168      .   S
    C258   O559      0.70168      .   S
    C255   O560      0.69472      .   S
    C243   O560      0.69472      .   S
    C255   O561      0.70178      .   S
    C259   O561      0.70178      .   S
    C253   O562      0.69472      .   S
    C241   O562      0.69472      .   S
    C253   O563      0.70175      .   S
    C257   O563      0.70175      .   S
    C242   O564      0.67454      .   S
    C342   O564      0.67454      .   S
    C240   O565      0.67452      .   S
    C340   O565      0.67452      .   S
    C241   O566      0.67451      .   S
    C341   O566      0.67451      .   S
    C243   O567      0.67448      .   S
    C343   O567      0.67448      .   S
    C412   O568      1.18215      .   S
    C4     O568      1.18215      .   S
    C414   O569      1.18214      .   S
    C6     O569      1.18214      .   S
    C413   O570      1.18050      .   S
    C5     O570      1.18050      .   S
    C415   O571      1.18012      .   S
    C7     O571      1.18012      .   S
    C271   O572      0.69494      .   S
    C299   O572      0.69494      .   S
    C271   O573      0.70250      .   S
    C263   O573      0.70250      .   S
    C269   O574      0.69491      .   S
    C297   O574      0.69491      .   S
    C269   O575      0.70256      .   S
    C261   O575      0.70256      .   S
    C268   O576      0.69489      .   S
    C296   O576      0.69489      .   S
    C268   O577      0.70210      .   S
    C260   O577      0.70210      .   S
    C270   O578      0.69488      .   S
    C298   O578      0.69488      .   S
    C270   O579      0.70251      .   S
    C262   O579      0.70251      .   S
    C299   O580      0.67463      .   S
    C347   O580      0.67463      .   S
    C297   O581      0.67441      .   S
    C345   O581      0.67441      .   S
    C298   O582      0.67442      .   S
    C346   O582      0.67442      .   S
    C296   O583      0.67442      .   S
    C344   O583      0.67442      .   S
    C263   O584      0.74069      .   S
    C258   O584      0.74069      .   S
    C263   O585      0.70241      .   S
    C267   O585      0.70241      .   S
    C261   O586      0.74069      .   S
    C256   O586      0.74069      .   S
    C261   O587      0.70237      .   S
    C265   O587      0.70237      .   S
    C260   O588      0.74078  1_545   S
    C257   O588      0.74078      .   S
    C260   O589      0.70282      .   S
    C264   O589      0.70282      .   S
    C258   O590      0.70198      .   S
    C250   O590      0.70198      .   S
    C256   O591      0.70195      .   S
    C248   O591      0.70195      .   S
    C262   O592      0.74071  1_545   S
    C259   O592      0.74071      .   S
    C262   O593      0.70242      .   S
    C266   O593      0.70242      .   S
    C262   O594      0.82118  1_545   S
    C287   O594      0.82118      .   S
    C257   O595      0.70195      .   S
    C249   O595      0.70195      .   S
    C259   O596      0.70199      .   S
    C251   O596      0.70199      .   S
    C259   O597      0.66431      .   S
    C287   O597      0.66431      .   S
    C340   O598      1.16556      .   S
    C4     O598      1.16556      .   S
    C340   O599      0.67485      .   S
    C244   O599      0.67485      .   S
    C342   O600      1.16556      .   S
    C6     O600      1.16556      .   S
    C342   O601      0.67489      .   S
    C246   O601      0.67489      .   S
    C343   O602      1.16540      .   S
    C7     O602      1.16540      .   S
    C343   O603      0.67486      .   S
    C247   O603      0.67486      .   S
    C341   O604      1.16547      .   S
    C5     O604      1.16547      .   S
    C341   O605      0.67484      .   S
    C245   O605      0.67484      .   S
    C347   O606      1.18372      .   S
    C7     O606      1.18372      .   S
    C347   O607      0.67443      .   S
    C275   O607      0.67443      .   S
    C345   O608      1.18369      .   S
    C5     O608      1.18369      .   S
    C345   O609      0.67439      .   S
    C273   O609      0.67439      .   S
    C346   O610      1.18397      .   S
    C6     O610      1.18397      .   S
    C346   O611      0.67447      .   S
    C274   O611      0.67447      .   S
    C344   O612      1.18396      .   S
    C4     O612      1.18396      .   S
    C344   O613      0.67447      .   S
    C272   O613      0.67447      .   S
    C6     O614      1.19441      .   S
    C386   O614      1.19441      .   S
    C6     O615      1.18510      .   S
    C358   O615      1.18510      .   S
    C4     O616      1.19478      .   S
    C384   O616      1.19478      .   S
    C4     O617      1.18509      .   S
    C356   O617      1.18509      .   S
    C7     O618      1.19436      .   S
    C387   O618      1.19436      .   S
    C7     O619      1.18492      .   S
    C359   O619      1.18492      .   S
    C5     O620      1.19405      .   S
    C385   O620      1.19405      .   S
    C5     O621      1.18447      .   S
    C357   O621      1.18447      .   S
    C267   O622      0.69626      .   S
    C275   O622      0.69626      .   S
    C267   O623      0.54477      .   S
    C127   O623      0.54477      .   S
    C265   O624      0.69626      .   S
    C273   O624      0.69626      .   S
    C265   O625      0.54476      .   S
    C125   O625      0.54476      .   S
    C273   O626      0.54601      .   S
    C133   O626      0.54601      .   S
    C275   O627      0.54599      .   S
    C135   O627      0.54599      .   S
    C266   O628      0.69632      .   S
    C274   O628      0.69632      .   S
    C266   O629      0.54480      .   S
    C126   O629      0.54480      .   S
    C264   O630      0.69631      .   S
    C272   O630      0.69631      .   S
    C264   O631      0.54475      .   S
    C124   O631      0.54475      .   S
    C272   O632      0.54605      .   S
    C132   O632      0.54605      .   S
    C274   O633      0.54604      .   S
    C134   O633      0.54604      .   S
    C386   O634      0.74956      .   S
    C314   O634      0.74956      .   S
    C384   O635      0.74893      .   S
    C312   O635      0.74893      .   S
    C387   O636      0.74833      .   S
    C315   O636      0.74833      .   S
    C385   O637      0.74904      .   S
    C313   O637      0.74904      .   S
    C246   O638      0.69480      .   S
    C250   O638      0.69480      .   S
    C246   O639      0.54487      .   S
    C114   O639      0.54487      .   S
    C244   O640      0.69480      .   S
    C248   O640      0.69480      .   S
    C244   O641      0.54488      .   S
    C112   O641      0.54488      .   S
    C247   O642      0.69482      .   S
    C251   O642      0.69482      .   S
    C247   O643      0.54491      .   S
    C115   O643      0.54491      .   S
    C245   O644      0.69482      .   S
    C249   O644      0.69482      .   S
    C245   O645      0.54490      .   S
    C113   O645      0.54490      .   S
    C250   O646      0.54448      .   S
    C118   O646      0.54448      .   S
    C248   O647      0.54447      .   S
    C116   O647      0.54447      .   S
    C251   O648      0.54444      .   S
    C119   O648      0.54444      .   S
    C251   O649      0.64305      .   S
    C287   O649      0.64305      .   S
    C249   O650      0.54445      .   S
    C117   O650      0.54445      .   S
    C89    O651      0.54893      .   S
    C231   O651      0.54893      .   S
    C91    O652      0.54891      .   S
    C229   O652      0.54891  1_455   S
    C90    O653      0.54896      .   S
    C228   O653      0.54896  1_455   S
    C88    O654      0.54897      .   S
    C230   O654      0.54897      .   S
    C86    O655      0.54907      .   S
    C230   O655      0.54907      .   S
    C84    O656      0.54907      .   S
    C228   O656      0.54907      .   S
    C87    O657      0.54905      .   S
    C231   O657      0.54905      .   S
    C85    O658      0.54905      .   S
    C229   O658      0.54905      .   S
    C228   O659      0.90035      .   S
    C312   O659      0.90035      .   S
    C228   O660      0.75972  1_455   S
    C158   O660      0.75972      .   S
    C230   O661      0.90035      .   S
    C314   O661      0.90035      .   S
    C230   O662      0.75972      .   S
    C156   O662      0.75972      .   S
    C229   O663      0.90050      .   S
    C313   O663      0.90050      .   S
    C229   O664      0.75971      .   S
    C159   O664      0.75971  1_655   S
    C231   O665      0.90058      .   S
    C315   O665      0.90058      .   S
    C231   O666      0.75972      .   S
    C157   O666      0.75972      .   S
    C358   O667      0.75141      .   S
    C302   O667      0.75141      .   S
    C356   O668      0.75147      .   S
    C300   O668      0.75147      .   S
    C357   O669      0.75129      .   S
    C301   O669      0.75129      .   S
    C359   O670      0.75128      .   S
    C303   O670      0.75128      .   S
    C312   O671      0.73206      .   S
    C388   O671      0.73206      .   S
    C312   O672      0.75129      .   S
    C392   O672      0.75129      .   S
    C314   O673      0.73205      .   S
    C390   O673      0.73205      .   S
    C314   O674      0.75129      .   S
    C394   O674      0.75129      .   S
    C315   O675      0.73235      .   S
    C391   O675      0.73235      .   S
    C315   O676      0.75173      .   S
    C395   O676      0.75173      .   S
    C313   O677      0.73190      .   S
    C389   O677      0.73190      .   S
    C313   O678      0.75143      .   S
    C393   O678      0.75143      .   S
    C354   O679      0.73202      .   S
    C302   O679      0.73202      .   S
    C352   O680      0.73210      .   S
    C300   O680      0.73210      .   S
    C355   O681      0.73219      .   S
    C303   O681      0.73219      .   S
    C353   O682      0.73205      .   S
    C301   O682      0.73205      .   S
    C302   O683      0.90050      .   S
    C158   O683      0.90050      .   S
    C302   O684      0.74911      .   S
    C350   O684      0.74911      .   S
    C300   O685      0.90051      .   S
    C156   O685      0.90051      .   S
    C300   O686      0.74896      .   S
    C348   O686      0.74896      .   S
    C301   O687      0.90035      .   S
    C157   O687      0.90035      .   S
    C301   O688      0.74894      .   S
    C349   O688      0.74894      .   S
    C303   O689      0.90036      .   S
    C159   O689      0.90036      .   S
    C303   O690      0.74894      .   S
    C351   O690      0.74894      .   S
    C392   O691      1.18430      .   S
    C0     O691      1.18430      .   S
    C394   O692      1.18448      .   S
    C2     O692      1.18448      .   S
    C395   O693      1.18503      .   S
    C3     O693      1.18503      .   S
    C393   O694      1.18510      .   S
    C1     O694      1.18510      .   S
    C158   O695      0.54906      .   S
    C14    O695      0.54906      .   S
    C158   O696      0.54891  1_655   S
    C16    O696      0.54891      .   S
    C156   O697      0.54906      .   S
    C12    O697      0.54906      .   S
    C156   O698      0.54892      .   S
    C18    O698      0.54892      .   S
    C159   O699      0.54905      .   S
    C15    O699      0.54905      .   S
    C159   O700      0.54897  1_655   S
    C17    O700      0.54897      .   S
    C157   O701      0.54907      .   S
    C13    O701      0.54907      .   S
    C157   O702      0.54898      .   S
    C19    O702      0.54898      .   S
    C46    O703      0.54444      .   S
    C178   O703      0.54444      .   S
    C44    O704      0.54443      .   S
    C176   O704      0.54443      .   S
    C45    O705      0.54448      .   S
    C177   O705      0.54448      .   S
    C47    O706      0.54447      .   S
    C179   O706      0.54447      .   S
    C40    O707      0.54492      .   S
    C172   O707      0.54492      .   S
    C42    O708      0.54491      .   S
    C174   O708      0.54491      .   S
    C41    O709      0.54489      .   S
    C173   O709      0.54489      .   S
    C43    O710      0.54488      .   S
    C175   O710      0.54488      .   S
    C63    O711      0.54603      .   S
    C203   O711      0.54603      .   S
    C61    O712      0.54607      .   S
    C201   O712      0.54607      .   S
    C60    O713      0.54599      .   S
    C200   O713      0.54599      .   S
    C62    O714      0.54601      .   S
    C202   O714      0.54601      .   S
    C55    O715      0.54440      .   S
    C195   O715      0.54440      .   S
    C53    O716      0.54481      .   S
    C193   O716      0.54481      .   S
    C54    O717      0.54478      .   S
    C194   O717      0.54478      .   S
    C52    O718      0.54478      .   S
    C192   O718      0.54478      .   S
    C176   O719      0.69482      .   S
    C172   O719      0.69482      .   S
    C176   O720      0.70201      .   S
    C184   O720      0.70201      .   S
    C178   O721      0.69482      .   S
    C174   O721      0.69482      .   S
    C178   O722      0.70198      .   S
    C186   O722      0.70198      .   S
    C179   O723      0.69480      .   S
    C175   O723      0.69480      .   S
    C179   O724      0.70201      .   S
    C187   O724      0.70201      .   S
    C177   O725      0.69479      .   S
    C173   O725      0.69479      .   S
    C177   O726      0.70202      .   S
    C185   O726      0.70202      .   S
    C172   O727      0.67485      .   S
    C328   O727      0.67485      .   S
    C174   O728      0.67486      .   S
    C330   O728      0.67486      .   S
    C173   O729      0.67485      .   S
    C329   O729      0.67485      .   S
    C175   O730      0.67486      .   S
    C331   O730      0.67486      .   S
    C348   O731      1.19389      .   S
    C0     O731      1.19389      .   S
    C350   O732      1.19404      .   S
    C2     O732      1.19404      .   S
    C349   O733      1.19479      .   S
    C1     O733      1.19479      .   S
    C351   O734      1.19473      .   S
    C3     O734      1.19473      .   S
    C203   O735      0.69636      .   S
    C195   O735      0.69636      .   S
    C203   O736      0.67450      .   S
    C335   O736      0.67450      .   S
    C201   O737      0.69632      .   S
    C193   O737      0.69632      .   S
    C201   O738      0.67441      .   S
    C333   O738      0.67441      .   S
    C195   O739      0.70276      .   S
    C191   O739      0.70276      .   S
    C193   O740      0.70242      .   S
    C189   O740      0.70242      .   S
    C202   O741      0.69625      .   S
    C194   O741      0.69625      .   S
    C202   O742      0.67444      .   S
    C334   O742      0.67444      .   S
    C200   O743      0.69625      .   S
    C192   O743      0.69625      .   S
    C200   O744      0.67442      .   S
    C332   O744      0.67442      .   S
    C194   O745      0.70197      .   S
    C190   O745      0.70197      .   S
    C192   O746      0.70240      .   S
    C188   O746      0.70240      .   S
    C0     O747      1.18366      .   S
    C332   O747      1.18366      .   S
    C0     O748      1.16551      .   S
    C328   O748      1.16551      .   S
    C0     O749      1.18070      .   S
    C376   O749      1.18070      .   S
    C0     O750      1.20961      .   S
    C364   O750      1.20961      .   S
    C2     O751      1.18368      .   S
    C334   O751      1.18368      .   S
    C2     O752      1.16547      .   S
    C330   O752      1.16547      .   S
    C2     O753      1.18052      .   S
    C378   O753      1.18052      .   S
    C2     O754      1.20944      .   S
    C366   O754      1.20944      .   S
    C3     O755      1.18395      .   S
    C335   O755      1.18395      .   S
    C3     O756      1.16557      .   S
    C331   O756      1.16557      .   S
    C3     O757      1.18225      .   S
    C379   O757      1.18225      .   S
    C3     O758      1.20984      .   S
    C367   O758      1.20984      .   S
    C1     O759      1.18395      .   S
    C333   O759      1.18395      .   S
    C1     O760      1.16558      .   S
    C329   O760      1.16558      .   S
    C1     O761      1.18216      .   S
    C377   O761      1.18216      .   S
    C1     O762      1.20978      .   S
    C365   O762      1.20978      .   S
    C333   O763      0.67444      .   S
    C225   O763      0.67444      .   S
    C335   O764      0.67441      .   S
    C227   O764      0.67441      .   S
    C332   O765      0.67446      .   S
    C224   O765      0.67446      .   S
    C334   O766      0.67438      .   S
    C226   O766      0.67438      .   S
    C330   O767      0.67449      .   S
    C170   O767      0.67449      .   S
    C328   O768      0.67449      .   S
    C168   O768      0.67449      .   S
    C331   O769      0.67451      .   S
    C171   O769      0.67451      .   S
    C329   O770      0.67451      .   S
    C169   O770      0.67451      .   S
    C184   O771      0.74073      .   S
    C189   O771      0.74073  1_565   S
    C184   O772      0.70177      .   S
    C180   O772      0.70177      .   S
    C186   O773      0.74072      .   S
    C191   O773      0.74072  1_565   S
    C186   O774      0.70178      .   S
    C182   O774      0.70178      .   S
    C191   O775      0.70251      .   S
    C199   O775      0.70251      .   S
    C189   O776      0.70250      .   S
    C197   O776      0.70250      .   S
    C187   O777      0.74062      .   S
    C190   O777      0.74062      .   S
    C187   O778      0.70165      .   S
    C183   O778      0.70165      .   S
    C185   O779      0.74069      .   S
    C188   O779      0.74069      .   S
    C185   O780      0.70165      .   S
    C181   O780      0.70165      .   S
    C190   O781      0.70302      .   S
    C198   O781      0.70302      .   S
    C188   O782      0.70253      .   S
    C196   O782      0.70253      .   S
    C381   O783      0.72963      .   S
    C309   O783      0.72963      .   S
    C383   O784      0.72962      .   S
    C311   O784      0.72962      .   S
    C382   O785      0.72977      .   S
    C310   O785      0.72977      .   S
    C380   O786      0.72977      .   S
    C308   O786      0.72977      .   S
    C225   O787      0.69488      .   S
    C197   O787      0.69488      .   S
    C225   O788      0.54499      .   S
    C81    O788      0.54499      .   S
    C227   O789      0.69489      .   S
    C199   O789      0.69489      .   S
    C227   O790      0.54498      .   S
    C83    O790      0.54498      .   S
    C226   O791      0.69491      .   S
    C198   O791      0.69491      .   S
    C226   O792      0.54503      .   S
    C82    O792      0.54503      .   S
    C224   O793      0.69491      .   S
    C196   O793      0.69491      .   S
    C224   O794      0.54498      .   S
    C80    O794      0.54498      .   S
    C197   O795      0.54467      .   S
    C57    O795      0.54467      .   S
    C199   O796      0.54466      .   S
    C59    O796      0.54466      .   S
    C198   O797      0.54467      .   S
    C58    O797      0.54467      .   S
    C196   O798      0.54467      .   S
    C56    O798      0.54467      .   S
    C30    O799      0.54892  1_655   S
    C164   O799      0.54892      .   S
    C28    O800      0.54892      .   S
    C166   O800      0.54892      .   S
    C31    O801      0.54893  1_655   S
    C165   O801      0.54893      .   S
    C29    O802      0.54895      .   S
    C167   O802      0.54895      .   S
    C376   O803      0.75011      .   S
    C308   O803      0.75011      .   S
    C378   O804      0.75011      .   S
    C310   O804      0.75011      .   S
    C377   O805      0.75024      .   S
    C309   O805      0.75024      .   S
    C379   O806      0.75022      .   S
    C311   O806      0.75022      .   S
    C170   O807      0.69471      .   S
    C182   O807      0.69471      .   S
    C170   O808      0.54372      .   S
    C38    O808      0.54372      .   S
    C168   O809      0.69472      .   S
    C180   O809      0.69472      .   S
    C168   O810      0.54410      .   S
    C36    O810      0.54410      .   S
    C169   O811      0.69472      .   S
    C181   O811      0.69472      .   S
    C169   O812      0.54401      .   S
    C37    O812      0.54401      .   S
    C171   O813      0.69472      .   S
    C183   O813      0.69472      .   S
    C171   O814      0.54402      .   S
    C39    O814      0.54402      .   S
    C180   O815      0.54420      .   S
    C48    O815      0.54420      .   S
    C182   O816      0.54428      .   S
    C50    O816      0.54428      .   S
    C181   O817      0.54433      .   S
    C49    O817      0.54433      .   S
    C183   O818      0.54433      .   S
    C51    O818      0.54433      .   S
    C310   O819      0.89764      .   S
    C166   O819      0.89764      .   S
    C310   O820      0.74830      .   S
    C374   O820      0.74830      .   S
    C308   O821      0.89764      .   S
    C164   O821      0.89764      .   S
    C308   O822      0.74850      .   S
    C372   O822      0.74850      .   S
    C309   O823      0.89750      .   S
    C165   O823      0.89750      .   S
    C309   O824      0.74861      .   S
    C373   O824      0.74861      .   S
    C311   O825      0.89749      .   S
    C167   O825      0.89749      .   S
    C311   O826      0.74861      .   S
    C375   O826      0.74861      .   S
    C21    O827      0.54835      .   S
    C161   O827      0.54835      .   S
    C23    O828      0.54835      .   S
    C163   O828      0.54835      .   S
    C20    O829      0.54839      .   S
    C160   O829      0.54839      .   S
    C22    O830      0.54840      .   S
    C162   O830      0.54840      .   S
    C166   O831      0.54823      .   S
    C34    O831      0.54823      .   S
    C166   O832      0.76010      .   S
    C160   O832      0.76010      .   S
    C164   O833      0.54823      .   S
    C32    O833      0.54823      .   S
    C164   O834      0.76008  1_455   S
    C162   O834      0.76008      .   S
    C167   O835      0.54818      .   S
    C35    O835      0.54818      .   S
    C167   O836      0.75996      .   S
    C161   O836      0.75996      .   S
    C165   O837      0.54811      .   S
    C33    O837      0.54811      .   S
    C165   O838      0.75994  1_455   S
    C163   O838      0.75994      .   S
    C364   O839      0.74327      .   S
    C304   O839      0.74327      .   S
    C366   O840      0.74325      .   S
    C306   O840      0.74325      .   S
    C365   O841      0.74350      .   S
    C305   O841      0.74350      .   S
    C367   O842      0.74350      .   S
    C307   O842      0.74350      .   S
    C163   O843      0.89768      .   S
    C307   O843      0.89768      .   S
    C163   O844      0.54922      .   S
    C25    O844      0.54922  1_455   S
    C161   O845      0.89768      .   S
    C305   O845      0.89768      .   S
    C161   O846      0.54923      .   S
    C27    O846      0.54923      .   S
    C160   O847      0.89761      .   S
    C304   O847      0.89761      .   S
    C160   O848      0.54919      .   S
    C26    O848      0.54919      .   S
    C162   O849      0.89761      .   S
    C306   O849      0.89761      .   S
    C162   O850      0.54918      .   S
    C24    O850      0.54918  1_455   S
    C373   O851      1.17644      .   S
    C9     O851      1.17644      .   S
    C375   O852      1.17638      .   S
    C11    O852      1.17638      .   S
    C307   O853      0.74882      .   S
    C363   O853      0.74882      .   S
    C307   O854      0.73702      .   S
    C371   O854      0.73702      .   S
    C305   O855      0.74882      .   S
    C361   O855      0.74882      .   S
    C305   O856      0.73702      .   S
    C369   O856      0.73702      .   S
    C306   O857      0.74879      .   S
    C362   O857      0.74879      .   S
    C306   O858      0.73708      .   S
    C370   O858      0.73708      .   S
    C304   O859      0.74878      .   S
    C360   O859      0.74878      .   S
    C304   O860      0.73709      .   S
    C368   O860      0.73709      .   S
    C361   O861      1.18889      .   S
    C9     O861      1.18889      .   S
    C363   O862      1.18886      .   S
    C11    O862      1.18886      .   S
    C66    O863      0.54386      .   S
    C206   O863      0.54386      .   S
    C64    O864      0.54384      .   S
    C204   O864      0.54384      .   S
    C67    O865      0.54383      .   S
    C207   O865      0.54383      .   S
    C65    O866      0.54383      .   S
    C205   O866      0.54383      .   S
    C141   O867      0.54391      .   S
    C281   O867      0.54391      .   S
    C143   O868      0.54391      .   S
    C283   O868      0.54391      .   S
    C140   O869      0.54391      .   S
    C280   O869      0.54391      .   S
    C142   O870      0.54392      .   S
    C282   O870      0.54392      .   S
    C74    O871      0.54528      .   S
    C218   O871      0.54528      .   S
    C72    O872      0.54528      .   S
    C216   O872      0.54528      .   S
    C75    O873      0.54535      .   S
    C219   O873      0.54535      .   S
    C73    O874      0.54525      .   S
    C217   O874      0.54525      .   S
    C148   O875      0.54488      .   S
    C292   O875      0.54488      .   S
    C150   O876      0.54488      .   S
    C294   O876      0.54488      .   S
    C149   O877      0.54489      .   S
    C293   O877      0.54489      .   S
    C151   O878      0.54488      .   S
    C295   O878      0.54488      .   S
    C206   O879      0.69479      .   S
    C218   O879      0.69479      .   S
    C206   O880      0.70231      .   S
    C214   O880      0.70231      .   S
    C204   O881      0.69479      .   S
    C216   O881      0.69479      .   S
    C204   O882      0.70230      .   S
    C212   O882      0.70230      .   S
    C207   O883      0.69479      .   S
    C219   O883      0.69479      .   S
    C205   O884      0.69472      .   S
    C217   O884      0.69472      .   S
    C280   O885      0.69495      .   S
    C292   O885      0.69495      .   S
    C280   O886      0.70333      .   S
    C284   O886      0.70333      .   S
    C282   O887      0.69495      .   S
    C294   O887      0.69495      .   S
    C282   O888      0.70333      .   S
    C286   O888      0.70333      .   S
    C281   O889      0.69493      .   S
    C293   O889      0.69493      .   S
    C283   O890      0.69493      .   S
    C295   O890      0.69493      .   S
    C294   O891      0.67478      .   S
    C338   O891      0.67478      .   S
    C292   O892      0.67478      .   S
    C336   O892      0.67478      .   S
    C293   O893      0.67481      .   S
    C337   O893      0.67481      .   S
    C295   O894      0.67481      .   S
    C339   O894      0.67481      .   S
    C337   O895      1.16903      .   S
    C9     O895      1.16903      .   S
    C339   O896      1.16901      .   S
    C11    O896      1.16901      .   S
