# CIF file generated by openbabel 2.4.90, see http://openbabel.sf.net
data_I
_chemical_name_common ''
_cell_length_a 16.978
_cell_length_b 23.612
_cell_length_c 15.943
_cell_angle_alpha 95.36
_cell_angle_beta 105.337
_cell_angle_gamma 99.088
_space_group_name_H-M_alt 'P 1'
_space_group_name_Hall 'P 1'
loop_
    _symmetry_equiv_pos_as_xyz
    x,y,z
loop_
    _atom_site_label
    _atom_site_type_symbol
    _atom_site_fract_x
    _atom_site_fract_y
    _atom_site_fract_z
    _atom_site_occupancy
    N0      N    0.76963   0.52551   0.68187   1.000
    N1      N    0.50324   0.25755   0.83352   1.000
    N2      N    0.50338   0.75769   0.83358   1.000
    N3      N    0.00324   0.25755   0.83353   1.000
    N4      N    0.00338   0.75769   0.83358   1.000
    N5      N    0.99991   0.25025   0.49992   1.000
    N6      N    0.00008   0.74977   0.50008   1.000
    N7      N    0.49991   0.25025   0.49991   1.000
    N8      N    0.50008   0.74977   0.50008   1.000
    N9      N    0.26963   0.52551   0.68188   1.000
    N10     N    0.74999   0.50001   0.99995   1.000
    N11     N    0.74962   0.90027   0.00044   1.000
    N12     N    0.25000   0.50001   0.99996   1.000
    N13     N    0.25059   0.94797   0.19489   1.000
    N14     N    0.73091   0.97416   0.32230   1.000
    N15     N    0.24962   0.90027   0.00044   1.000
    N16     N    0.75035   0.09291   0.99953   1.000
    N17     N    0.23036   0.47450   0.31813   1.000
    N18     N    0.22884   0.97691   0.32519   1.000
    N19     N    0.73036   0.47450   0.31812   1.000
    N20     N    0.77002   0.02558   0.68158   1.000
    N21     N    0.99674   0.74247   0.16647   1.000
    N22     N    0.27002   0.02558   0.68158   1.000
    N23     N    0.49661   0.24232   0.16639   1.000
    N24     N    0.49674   0.74246   0.16647   1.000
    N25     N    0.99661   0.24232   0.16639   1.000
    N26     N    0.25036   0.09292   0.99953   1.000
    Zr27    Zr   0.74986   0.74995   0.99979   1.000
    O28     O    0.67544   0.74765   0.94141   1.000
    O29     O    0.74974   0.79990   0.99991   1.000
    O30     O    0.82435   0.75223   0.05832   1.000
    O31     O    0.67314   0.74890   0.04997   1.000
    O32     O    0.75002   0.67511   0.99986   1.000
    O33     O    0.82661   0.75104   0.94959   1.000
    Zr34    Zr   0.75013   0.25006   0.00021   1.000
    O35     O    0.82686   0.25112   0.95002   1.000
    O36     O    0.67338   0.24897   0.05040   1.000
    O37     O    0.82456   0.25236   0.05858   1.000
    O38     O    0.74998   0.32490   0.00001   1.000
    O39     O    0.67564   0.24778   0.94168   1.000
    O40     O    0.75025   0.19841   0.00001   1.000
    Zr41    Zr   0.25981   0.27322   0.67480   1.000
    O42     O    0.33458   0.26781   0.62415   1.000
    O43     O    0.26316   0.19912   0.67721   1.000
    O44     O    0.18377   0.26771   0.61337   1.000
    O45     O    0.26342   0.34897   0.67723   1.000
    O46     O    0.18262   0.26973   0.72349   1.000
    O47     O    0.33322   0.27348   0.73223   1.000
    Zr48    Zr   0.73983   0.22674   0.32469   1.000
    O49     O    0.81593   0.23246   0.38625   1.000
    O50     O    0.73645   0.15091   0.32353   1.000
    O51     O    0.73674   0.30088   0.32235   1.000
    O52     O    0.81697   0.23012   0.27594   1.000
    O53     O    0.66643   0.22636   0.26740   1.000
    O54     O    0.66512   0.23238   0.37545   1.000
    Zr55    Zr   0.24018   0.72680   0.32517   1.000
    O56     O    0.16677   0.72653   0.26775   1.000
    O57     O    0.23657   0.65104   0.32275   1.000
    O58     O    0.23655   0.80152   0.32447   1.000
    O59     O    0.31737   0.73028   0.27649   1.000
    O60     O    0.31622   0.73230   0.38661   1.000
    O61     O    0.16541   0.73220   0.37583   1.000
    Zr62    Zr   0.25013   0.25006   0.00021   1.000
    O63     O    0.17338   0.24897   0.05040   1.000
    O64     O    0.24998   0.32490   0.00001   1.000
    O65     O    0.32686   0.25112   0.95002   1.000
    O66     O    0.17564   0.24778   0.94168   1.000
    O67     O    0.25025   0.19841   0.00001   1.000
    O68     O    0.32456   0.25236   0.05858   1.000
    Zr69    Zr   0.26016   0.77328   0.67531   1.000
    O70     O    0.18405   0.76756   0.61375   1.000
    O71     O    0.26377   0.84903   0.67744   1.000
    O72     O    0.18302   0.76989   0.72405   1.000
    O73     O    0.26325   0.69914   0.67765   1.000
    O74     O    0.33487   0.76764   0.62454   1.000
    O75     O    0.33356   0.77365   0.73258   1.000
    Zr76    Zr   0.74018   0.72680   0.32510   1.000
    O77     O    0.73706   0.80082   0.32370   1.000
    O78     O    0.66677   0.72653   0.26771   1.000
    O79     O    0.66541   0.73220   0.37579   1.000
    O80     O    0.81622   0.73230   0.38657   1.000
    O81     O    0.73657   0.65104   0.32271   1.000
    O82     O    0.81737   0.73028   0.27644   1.000
    Zr83    Zr   0.23983   0.22674   0.32469   1.000
    O84     O    0.16643   0.22636   0.26742   1.000
    O85     O    0.31697   0.23012   0.27594   1.000
    O86     O    0.23674   0.30088   0.32235   1.000
    O87     O    0.16512   0.23238   0.37546   1.000
    O88     O    0.31593   0.23246   0.38625   1.000
    O89     O    0.23593   0.15160   0.32425   1.000
    Zr90    Zr   0.76016   0.77328   0.67530   1.000
    O91     O    0.83487   0.76764   0.62453   1.000
    O92     O    0.68302   0.76989   0.72405   1.000
    O93     O    0.68405   0.76755   0.61374   1.000
    O94     O    0.76377   0.84903   0.67744   1.000
    O95     O    0.76325   0.69914   0.67765   1.000
    O96     O    0.83356   0.77365   0.73257   1.000
    Zr97    Zr   0.24986   0.74995   0.99980   1.000
    O98     O    0.24974   0.79990   0.99991   1.000
    O99     O    0.17544   0.74765   0.94142   1.000
    O100    O    0.32661   0.75104   0.94960   1.000
    O101    O    0.17314   0.74890   0.04998   1.000
    O102    O    0.25002   0.67511   0.99986   1.000
    O103    O    0.32435   0.75223   0.05833   1.000
    Zr104   Zr   0.75981   0.27322   0.67483   1.000
    O105    O    0.76316   0.19912   0.67723   1.000
    O106    O    0.68377   0.26771   0.61338   1.000
    O107    O    0.83458   0.26781   0.62417   1.000
    O108    O    0.68262   0.26973   0.72351   1.000
    O109    O    0.83322   0.27348   0.73225   1.000
    O110    O    0.76342   0.34897   0.67725   1.000
loop_
    _geom_bond_atom_site_label_1
    _geom_bond_atom_site_label_2
    _geom_bond_distance
    _geom_bond_site_symmetry_2
    _ccdc_geom_bond_type
    Zr27   O28       1.34634      .   S
    N2     O28       3.03037      .   S
    Zr27   O29       1.17952      .   S
    N11    O29       2.36957  1_554   S
    Zr27   O30       1.34823  1_556   S
    N21    O30       3.03494      .   S
    Zr27   O31       1.69780  1_556   S
    N24    O31       3.91054      .   S
    Zr27   O32       1.76754      .   S
    N10    O32       4.13470      .   S
    Zr27   O33       1.69817      .   S
    N4     O33       3.91093  1_455   S
    Zr34   O35       1.69786  1_554   S
    N3     O35       3.91041  1_455   S
    Zr34   O36       1.69810      .   S
    N23    O36       3.91073      .   S
    Zr34   O37       1.34624      .   S
    N25    O37       3.03022      .   S
    Zr34   O38       1.76774      .   S
    N10    O38       4.13466  1_556   S
    Zr34   O39       1.34832  1_554   S
    N1     O39       3.03503      .   S
    Zr34   O40       1.21970      .   S
    N16    O40       2.49052  1_556   S
    Zr41   O42       1.68938      .   S
    N7     O42       3.88971      .   S
    Zr41   O43       1.76316      .   S
    N22    O43       4.12423      .   S
    Zr41   O44       1.37745      .   S
    N5     O44       3.10688  1_655   S
    Zr41   O45       1.77645      .   S
    N9     O45       4.14641      .   S
    Zr41   O46       1.68617      .   S
    N3     O46       3.88312      .   S
    Zr41   O47       1.33582      .   S
    N1     O47       3.01216      .   S
    Zr48   O49       1.37854      .   S
    N5     O49       3.10903      .   S
    Zr48   O50       1.78034      .   S
    N14    O50       4.15790  1_565   S
    Zr48   O51       1.76324      .   S
    N19    O51       4.12440      .   S
    Zr48   O52       1.68601      .   S
    N25    O52       3.88200      .   S
    Zr48   O53       1.33422      .   S
    N23    O53       3.00814      .   S
    Zr48   O54       1.69041      .   S
    N7     O54       3.89168      .   S
    Zr55   O56       1.33579      .   S
    N21    O56       3.01212  1_655   S
    Zr55   O57       1.77647      .   S
    N17    O57       4.14644      .   S
    Zr55   O58       1.77599      .   S
    N18    O58       4.16323      .   S
    Zr55   O59       1.68605      .   S
    N24    O59       3.88294      .   S
    Zr55   O60       1.37751      .   S
    N8     O60       3.10692      .   S
    Zr55   O61       1.68948      .   S
    N6     O61       3.88985      .   S
    Zr62   O63       1.69811      .   S
    N25    O63       3.91075  1_655   S
    Zr62   O64       1.76773      .   S
    N12    O64       4.13464  1_556   S
    Zr62   O65       1.69787  1_554   S
    N1     O65       3.91043      .   S
    Zr62   O66       1.34829  1_554   S
    N3     O66       3.03504      .   S
    Zr62   O67       1.21971      .   S
    N26    O67       2.49052  1_556   S
    Zr62   O68       1.34624      .   S
    N23    O68       3.03020      .   S
    Zr69   O70       1.37854      .   S
    N6     O70       3.10904      .   S
    Zr69   O71       1.77679      .   S
    N22    O71       4.14709  1_545   S
    Zr69   O72       1.68592      .   S
    N4     O72       3.88171      .   S
    Zr69   O73       1.76325      .   S
    N9     O73       4.12441      .   S
    Zr69   O74       1.69056      .   S
    N8     O74       3.89169      .   S
    Zr69   O75       1.33410      .   S
    N2     O75       3.00813      .   S
    Zr76   O77       1.75913      .   S
    N14    O77       4.11248      .   S
    Zr76   O78       1.33557      .   S
    N24    O78       3.01191      .   S
    Zr76   O79       1.68975      .   S
    N8     O79       3.89030      .   S
    Zr76   O80       1.37771      .   S
    N6     O80       3.10714  1_455   S
    Zr76   O81       1.77650      .   S
    N19    O81       4.14650      .   S
    Zr76   O82       1.68578      .   S
    N21    O82       3.88250      .   S
    Zr83   O84       1.33413      .   S
    N25    O84       3.00819  1_655   S
    Zr83   O85       1.68602      .   S
    N23    O85       3.88203      .   S
    Zr83   O86       1.76324      .   S
    N17    O86       4.12441      .   S
    Zr83   O87       1.69052      .   S
    N5     O87       3.89160  1_655   S
    Zr83   O88       1.37853      .   S
    N7     O88       3.10901      .   S
    Zr83   O89       1.76406      .   S
    N18    O89       4.10904  1_565   S
    Zr90   O91       1.69051      .   S
    N6     O91       3.89161  1_455   S
    Zr90   O92       1.68597      .   S
    N2     O92       3.88179      .   S
    Zr90   O93       1.37851      .   S
    N8     O93       3.10901      .   S
    Zr90   O94       1.77679      .   S
    N20    O94       4.14709  1_545   S
    Zr90   O95       1.76325      .   S
    N0     O95       4.12441      .   S
    Zr90   O96       1.33412      .   S
    N4     O96       3.00815  1_455   S
    Zr97   O98       1.17953      .   S
    N15    O98       2.36959  1_554   S
    Zr97   O99       1.34637      .   S
    N4     O99       3.03042      .   S
    Zr97   O100      1.69819      .   S
    N2     O100      3.91097      .   S
    Zr97   O101      1.69776  1_556   S
    N21    O101      3.91048  1_655   S
    Zr97   O102      1.76753      .   S
    N12    O102      4.13470      .   S
    Zr97   O103      1.34820  1_556   S
    N24    O103      3.03491      .   S
    Zr104  O105      1.76313      .   S
    N20    O105      4.12420      .   S
    Zr104  O106      1.37754      .   S
    N7     O106      3.10698      .   S
    Zr104  O107      1.68949      .   S
    N5     O107      3.88989      .   S
    Zr104  O108      1.68604      .   S
    N1     O108      3.88289      .   S
    Zr104  O109      1.33575      .   S
    N3     O109      3.01208  1_455   S
    Zr104  O110      1.77647      .   S
    N0     O110      4.14645      .   S
