# CIF file generated by openbabel 2.4.90, see http://openbabel.sf.net
data_I
_chemical_name_common ''
_cell_length_a 16.978
_cell_length_b 23.612
_cell_length_c 15.943
_cell_angle_alpha 95.36
_cell_angle_beta 105.337
_cell_angle_gamma 99.088
_space_group_name_H-M_alt 'P 1'
_space_group_name_Hall 'P 1'
loop_
    _symmetry_equiv_pos_as_xyz
    x,y,z
loop_
    _atom_site_label
    _atom_site_type_symbol
    _atom_site_fract_x
    _atom_site_fract_y
    _atom_site_fract_z
    _atom_site_occupancy
    Zr0     Zr   0.25981   0.27322   0.67480   1.000
    Zr1     Zr   0.26016   0.77328   0.67531   1.000
    Zr2     Zr   0.75981   0.27322   0.67483   1.000
    Zr3     Zr   0.76016   0.77328   0.67530   1.000
    Zr4     Zr   0.23983   0.22674   0.32469   1.000
    Zr5     Zr   0.24018   0.72680   0.32517   1.000
    Zr6     Zr   0.73983   0.22674   0.32469   1.000
    Zr7     Zr   0.74018   0.72680   0.32510   1.000
    Zr8     Zr   0.25013   0.25006   0.00021   1.000
    Zr9     Zr   0.24986   0.74995   0.99980   1.000
    Zr10    Zr   0.75013   0.25006   0.00021   1.000
    Zr11    Zr   0.74986   0.74995   0.99979   1.000
    N12     N    0.76963   0.52551   0.68187   1.000
    O13     O    0.76633   0.62499   0.67999   1.000
    O14     O    0.76703   0.42472   0.67967   1.000
    N15     N    0.50324   0.25755   0.83352   1.000
    O16     O    0.60542   0.26625   0.77219   1.000
    O17     O    0.60115   0.24550   0.88314   1.000
    O18     O    0.40358   0.25217   0.89982   1.000
    O19     O    0.40662   0.27375   0.78966   1.000
    N20     N    0.50338   0.75769   0.83358   1.000
    O21     O    0.60589   0.76650   0.77280   1.000
    O22     O    0.40696   0.77403   0.78984   1.000
    O23     O    0.60101   0.74535   0.88304   1.000
    O24     O    0.40336   0.75214   0.89940   1.000
    N25     N    0.00324   0.25755   0.83353   1.000
    O26     O    0.90662   0.27375   0.78967   1.000
    O27     O    0.10115   0.24550   0.88315   1.000
    O28     O    0.10542   0.26625   0.77218   1.000
    O29     O    0.90358   0.25217   0.89982   1.000
    N30     N    0.00338   0.75769   0.83358   1.000
    O31     O    0.90696   0.77403   0.78984   1.000
    O32     O    0.10101   0.74535   0.88304   1.000
    O33     O    0.10589   0.76650   0.77280   1.000
    O34     O    0.90336   0.75214   0.89940   1.000
    N35     N    0.99991   0.25025   0.49992   1.000
    O36     O    0.09042   0.23802   0.42623   1.000
    O37     O    0.10772   0.26221   0.55193   1.000
    O38     O    0.90935   0.26241   0.57351   1.000
    O39     O    0.89204   0.23818   0.44781   1.000
    N40     N    0.00008   0.74977   0.50008   1.000
    O41     O    0.09064   0.73761   0.42649   1.000
    O42     O    0.10794   0.76183   0.55219   1.000
    O43     O    0.90957   0.76199   0.57377   1.000
    O44     O    0.89226   0.73781   0.44804   1.000
    N45     N    0.49991   0.25025   0.49991   1.000
    O46     O    0.59042   0.23802   0.42620   1.000
    O47     O    0.60772   0.26221   0.55194   1.000
    O48     O    0.40935   0.26241   0.57350   1.000
    O49     O    0.39204   0.23818   0.44781   1.000
    N50     N    0.50008   0.74977   0.50008   1.000
    O51     O    0.59064   0.73761   0.42647   1.000
    O52     O    0.60795   0.76183   0.55219   1.000
    O53     O    0.40957   0.76199   0.57377   1.000
    O54     O    0.39227   0.73781   0.44806   1.000
    N55     N    0.26963   0.52551   0.68188   1.000
    O56     O    0.26633   0.62499   0.68000   1.000
    O57     O    0.26703   0.42472   0.67966   1.000
    N58     N    0.74999   0.50001   0.99995   1.000
    O59     O    0.75017   0.60028   0.99992   1.000
    O60     O    0.74982   0.39974   0.99982   1.000
    N61     N    0.74962   0.90027   0.00044   1.000
    O62     O    0.74961   0.84984   0.00003   1.000
    N63     N    0.25000   0.50001   0.99996   1.000
    O64     O    0.25018   0.60028   0.99993   1.000
    O65     O    0.24982   0.39974   0.99982   1.000
    N66     N    0.25059   0.94797   0.19489   1.000
    N67     N    0.73091   0.97416   0.32230   1.000
    O68     O    0.73395   0.87485   0.32230   1.000
    O69     O    0.73307   0.07509   0.32237   1.000
    N70     N    0.24962   0.90027   0.00044   1.000
    O71     O    0.24962   0.84984   0.00003   1.000
    N72     N    0.75035   0.09291   0.99953   1.000
    O73     O    0.75037   0.14675   0.99982   1.000
    N74     N    0.23036   0.47450   0.31813   1.000
    O75     O    0.23366   0.37502   0.32001   1.000
    O76     O    0.23296   0.57529   0.32033   1.000
    N77     N    0.22884   0.97691   0.32519   1.000
    O78     O    0.23292   0.87623   0.32376   1.000
    O79     O    0.23204   0.07647   0.32381   1.000
    N80     N    0.73036   0.47450   0.31812   1.000
    O81     O    0.73366   0.37502   0.32000   1.000
    O82     O    0.73295   0.57529   0.32031   1.000
    N83     N    0.77002   0.02558   0.68158   1.000
    O84     O    0.76651   0.12502   0.67962   1.000
    O85     O    0.76738   0.92478   0.67957   1.000
    N86     N    0.99674   0.74247   0.16647   1.000
    O87     O    0.09641   0.74785   0.10016   1.000
    O88     O    0.09336   0.72627   0.21033   1.000
    O89     O    0.89883   0.75451   0.11685   1.000
    O90     O    0.89456   0.73376   0.22779   1.000
    N91     N    0.27002   0.02558   0.68158   1.000
    O92     O    0.26651   0.12502   0.67962   1.000
    O93     O    0.26738   0.92478   0.67957   1.000
    N94     N    0.49661   0.24232   0.16639   1.000
    O95     O    0.59663   0.24787   0.10058   1.000
    O96     O    0.59303   0.22598   0.21012   1.000
    O97     O    0.39898   0.25466   0.11695   1.000
    O98     O    0.39410   0.23351   0.22719   1.000
    N99     N    0.49674   0.74246   0.16647   1.000
    O100    O    0.59641   0.74785   0.10016   1.000
    O101    O    0.59336   0.72627   0.21031   1.000
    O102    O    0.39883   0.75451   0.11685   1.000
    O103    O    0.39457   0.73376   0.22781   1.000
    N104    N    0.99661   0.24232   0.16639   1.000
    O105    O    0.09663   0.24787   0.10058   1.000
    O106    O    0.09303   0.22598   0.21014   1.000
    O107    O    0.89898   0.25466   0.11695   1.000
    O108    O    0.89410   0.23351   0.22719   1.000
    N109    N    0.25036   0.09292   0.99953   1.000
    O110    O    0.25037   0.14676   0.99982   1.000
loop_
    _geom_bond_atom_site_label_1
    _geom_bond_atom_site_label_2
    _geom_bond_distance
    _geom_bond_site_symmetry_2
    _ccdc_geom_bond_type
    N12    O13       2.36120      .   S
    Zr3    O13       3.52649      .   S
    N12    O14       2.37009      .   S
    Zr2    O14       3.55295      .   S
    N15    O16       2.19779      .   S
    Zr2    O16       3.37207      .   S
    N15    O17       1.72217      .   S
    Zr10   O17       2.69665  1_554   S
    N15    O18       2.21350      .   S
    Zr8    O18       3.39574  1_554   S
    N15    O19       1.72268      .   S
    Zr0    O19       2.67165      .   S
    N20    O21       2.19691      .   S
    Zr3    O21       3.37194      .   S
    N20    O22       1.72070      .   S
    Zr1    O22       2.66819      .   S
    N20    O23       1.71993      .   S
    Zr11   O23       2.69267      .   S
    N20    O24       2.21372      .   S
    Zr9    O24       3.39638      .   S
    N25    O26       1.72265  1_455   S
    Zr2    O26       2.67151      .   S
    N25    O27       1.72219      .   S
    Zr8    O27       2.69659  1_554   S
    N25    O28       2.19789      .   S
    Zr0    O28       3.37235      .   S
    N25    O29       2.21349  1_455   S
    Zr10   O29       3.39572  1_554   S
    N30    O31       1.72070  1_455   S
    Zr3    O31       2.66824      .   S
    N30    O32       1.71994      .   S
    Zr9    O32       2.69274      .   S
    N30    O33       2.19689      .   S
    Zr1    O33       3.37183      .   S
    N30    O34       2.21371  1_455   S
    Zr11   O34       3.39633      .   S
    N35    O36       2.20374  1_655   S
    Zr4    O36       3.38105      .   S
    N35    O37       1.76292  1_655   S
    Zr0    O37       2.75491      .   S
    N35    O38       2.20317      .   S
    Zr2    O38       3.37898      .   S
    N35    O39       1.76394      .   S
    Zr6    O39       2.75707      .   S
    N40    O41       2.20314      .   S
    Zr5    O41       3.37897      .   S
    N40    O42       1.76393      .   S
    Zr1    O42       2.75709      .   S
    N40    O43       2.20376  1_455   S
    Zr3    O43       3.38102      .   S
    N40    O44       1.76298  1_455   S
    Zr7    O44       2.75541      .   S
    N45    O46       2.20394      .   S
    Zr6    O46       3.38082      .   S
    N45    O47       1.76295      .   S
    Zr2    O47       2.75508      .   S
    N45    O48       2.20311      .   S
    Zr0    O48       3.37875      .   S
    N45    O49       1.76393      .   S
    Zr4    O49       2.75705      .   S
    N50    O51       2.20333      .   S
    Zr7    O51       3.37949      .   S
    N50    O52       1.76393      .   S
    Zr3    O52       2.75703      .   S
    N50    O53       2.20379      .   S
    Zr1    O53       3.38112      .   S
    N50    O54       1.76293      .   S
    Zr5    O54       2.75501      .   S
    N55    O56       2.36120      .   S
    Zr1    O56       3.52650      .   S
    N55    O57       2.37008      .   S
    Zr0    O57       3.55291      .   S
    N58    O59       2.36716      .   S
    Zr11   O59       3.53509      .   S
    N58    O60       2.36692      .   S
    Zr10   O60       3.53548  1_554   S
    N61    O62       1.19005      .   S
    Zr11   O62       2.35904  1_556   S
    N63    O64       2.36717      .   S
    Zr9    O64       3.53506      .   S
    N63    O65       2.36692      .   S
    Zr8    O65       3.53546  1_554   S
    N67    O68       2.35344      .   S
    Zr7    O68       3.51825      .   S
    N67    O69       2.37771  1_565   S
    Zr6    O69       3.56068      .   S
    N70    O71       1.19006      .   S
    Zr9    O71       2.35907  1_556   S
    N72    O73       1.27082      .   S
    Zr10   O73       2.43941  1_554   S
    N74    O75       2.36121      .   S
    Zr4    O75       3.52649      .   S
    N74    O76       2.37009      .   S
    Zr5    O76       3.55295      .   S
    N77    O78       2.38736      .   S
    Zr5    O78       3.55199      .   S
    N77    O79       2.34511  1_565   S
    Zr4    O79       3.52813      .   S
    N80    O81       2.36120      .   S
    Zr6    O81       3.52648      .   S
    N80    O82       2.37011      .   S
    Zr7    O82       3.55301      .   S
    N83    O84       2.36110      .   S
    Zr2    O84       3.52627      .   S
    N83    O85       2.37041  1_545   S
    Zr3    O85       3.55358      .   S
    N86    O87       2.21366  1_655   S
    Zr9    O87       3.39552  1_556   S
    N86    O88       1.72266  1_655   S
    Zr5    O88       2.67158      .   S
    N86    O89       1.72216      .   S
    Zr11   O89       2.69647  1_556   S
    N86    O90       2.19767      .   S
    Zr7    O90       3.37155      .   S
    N91    O92       2.36112      .   S
    Zr0    O92       3.52632      .   S
    N91    O93       2.37041  1_545   S
    Zr1    O93       3.55358      .   S
    N94    O95       2.21357      .   S
    Zr10   O95       3.39619      .   S
    N94    O96       1.72066      .   S
    Zr6    O96       2.66843      .   S
    N94    O97       1.71986      .   S
    Zr8    O97       2.69248      .   S
    N94    O98       2.19710      .   S
    Zr4    O98       3.37205      .   S
    N99    O100      2.21367      .   S
    Zr11   O100      3.39561  1_556   S
    N99    O101      1.72263      .   S
    Zr7    O101      2.67115      .   S
    N99    O102      1.72215      .   S
    Zr9    O102      2.69641  1_556   S
    N99    O103      2.19784      .   S
    Zr5    O103      3.37209      .   S
    N104   O105      2.21359  1_655   S
    Zr8    O105      3.39621      .   S
    N104   O106      1.72071  1_655   S
    Zr4    O106      2.66826      .   S
    N104   O107      1.71987      .   S
    Zr10   O107      2.69249      .   S
    N104   O108      2.19709      .   S
    Zr6    O108      3.37202      .   S
    N109   O110      1.27082      .   S
    Zr8    O110      2.43941  1_554   S
