# CIF file generated by openbabel 2.4.90, see http://openbabel.sf.net
data_I
_chemical_name_common ''
_cell_length_a 13.444
_cell_length_b 13.791
_cell_length_c 27.651
_cell_angle_alpha 90.014
_cell_angle_beta 89.914
_cell_angle_gamma 89.064
_space_group_name_H-M_alt 'P 1'
_space_group_name_Hall 'P 1'
loop_
    _symmetry_equiv_pos_as_xyz
    x,y,z
loop_
    _atom_site_label
    _atom_site_type_symbol
    _atom_site_fract_x
    _atom_site_fract_y
    _atom_site_fract_z
    _atom_site_occupancy
    C0      C    0.93157   0.39015   0.16611   1.000
    C1      C    0.77028   0.08254   0.16350   1.000
    C2      C    0.08659   0.93777   0.08536   1.000
    C3      C    0.23379   0.24245   0.08536   1.000
    C4      C    0.03286   0.68028   0.11000   1.000
    C5      C    0.90424   0.20322   0.01000   1.000
    C6      C    0.08773   0.08889   0.23751   1.000
    C7      C    0.43206   0.10163   0.83373   1.000
    C8      C    0.25587   0.41120   0.83625   1.000
    C9      C    0.54638   0.56784   0.91521   1.000
    C10     C    0.72338   0.26385   0.91906   1.000
    C11     C    0.52760   0.80136   0.87844   1.000
    C12     C    0.39853   0.29973   0.99230   1.000
    C13     C    0.57747   0.40854   0.76481   1.000
    C14     C    0.55877   0.60372   0.66864   1.000
    C15     C    0.73716   0.91412   0.66377   1.000
    C16     C    0.44364   0.06964   0.58510   1.000
    C17     C    0.27319   0.76452   0.58195   1.000
    C18     C    0.46252   0.30684   0.62050   1.000
    C19     C    0.60310   0.79293   0.51083   1.000
    C20     C    0.41319   0.91382   0.73573   1.000
    C21     C    0.06583   0.89554   0.33331   1.000
    C22     C    0.24203   0.58518   0.33620   1.000
    C23     C    0.94326   0.43129   0.41284   1.000
    C24     C    0.77612   0.73544   0.41708   1.000
    C25     C    0.96539   0.19386   0.38039   1.000
    C26     C    0.10448   0.70050   0.48988   1.000
    C27     C    0.92575   0.59153   0.26022   1.000
    C28     C    0.05367   0.60220   0.83176   1.000
    C29     C    0.23233   0.91185   0.83555   1.000
    C30     C    0.93865   0.06788   0.91387   1.000
    C31     C    0.76152   0.76542   0.91458   1.000
    C32     C    0.96145   0.30643   0.88100   1.000
    C33     C    0.07881   0.78701   0.99028   1.000
    C34     C    0.91578   0.91298   0.76236   1.000
    C35     C    0.57341   0.89899   0.16690   1.000
    C36     C    0.74110   0.57980   0.16213   1.000
    C37     C    0.44767   0.43768   0.08600   1.000
    C38     C    0.27882   0.75377   0.08864   1.000
    C39     C    0.47273   0.19967   0.12131   1.000
    C40     C    0.60164   0.70202   0.00886   1.000
    C41     C    0.42488   0.59183   0.23772   1.000
    C42     C    0.44057   0.39551   0.33325   1.000
    C43     C    0.26405   0.08481   0.33753   1.000
    C44     C    0.55850   0.93032   0.41630   1.000
    C45     C    0.72717   0.23640   0.41751   1.000
    C46     C    0.53638   0.69194   0.38245   1.000
    C47     C    0.39792   0.20578   0.49097   1.000
    C48     C    0.58701   0.08954   0.26427   1.000
    C49     C    0.93557   0.10506   0.66592   1.000
    C50     C    0.75743   0.41437   0.66413   1.000
    C51     C    0.05496   0.57039   0.58488   1.000
    C52     C    0.22484   0.26602   0.58262   1.000
    C53     C    0.03525   0.80664   0.61872   1.000
    C54     C    0.89636   0.29999   0.50875   1.000
    C55     C    0.07685   0.41086   0.73607   1.000
    N56     N    0.95790   0.31293   0.15353   1.000
    N57     N    0.84912   0.10317   0.14932   1.000
    N58     N    0.05381   0.01381   0.09640   1.000
    N59     N    0.15373   0.22030   0.09719   1.000
    N60     N    0.98559   0.63174   0.13565   1.000
    N61     N    0.93314   0.19745   0.04980   1.000
    N62     N    0.06892   0.11840   0.19889   1.000
    N63     N    0.45572   0.17783   0.84770   1.000
    N64     N    0.33461   0.38839   0.85056   1.000
    N65     N    0.52236   0.48907   0.90547   1.000
    N66     N    0.64259   0.28472   0.90678   1.000
    N67     N    0.47976   0.85518   0.85512   1.000
    N68     N    0.42101   0.30113   0.95141   1.000
    N69     N    0.55744   0.37979   0.80333   1.000
    N70     N    0.53776   0.68159   0.65497   1.000
    N71     N    0.65864   0.89098   0.65029   1.000
    N72     N    0.46867   0.99030   0.59471   1.000
    N73     N    0.35272   0.78721   0.59426   1.000
    N74     N    0.50993   0.35881   0.64427   1.000
    N75     N    0.57729   0.79696   0.55124   1.000
    N76     N    0.43511   0.88554   0.69723   1.000
    N77     N    0.04374   0.81831   0.34653   1.000
    N78     N    0.16231   0.60649   0.34998   1.000
    N79     N    0.96888   0.50913   0.40225   1.000
    N80     N    0.85650   0.71448   0.40411   1.000
    N81     N    0.01492   0.14022   0.35769   1.000
    N82     N    0.07909   0.69619   0.44946   1.000
    N83     N    0.94363   0.61931   0.29916   1.000
    N84     N    0.03135   0.68019   0.84485   1.000
    N85     N    0.15464   0.88739   0.84964   1.000
    N86     N    0.96038   0.98817   0.90321   1.000
    N87     N    0.84052   0.78784   0.90128   1.000
    N88     N    0.00814   0.35946   0.85754   1.000
    N89     N    0.05734   0.79486   0.94946   1.000
    N90     N    0.93543   0.88368   0.80092   1.000
    N91     N    0.55122   0.82157   0.15398   1.000
    N92     N    0.66263   0.60819   0.14991   1.000
    N93     N    0.47170   0.51645   0.09594   1.000
    N94     N    0.35947   0.72834   0.09905   1.000
    N95     N    0.52142   0.14616   0.14440   1.000
    N96     N    0.57992   0.69940   0.04982   1.000
    N97     N    0.44467   0.62142   0.19933   1.000
    N98     N    0.46071   0.31739   0.34680   1.000
    N99     N    0.34251   0.10727   0.35137   1.000
    N100    N    0.53395   0.00958   0.40626   1.000
    N101    N    0.64716   0.21359   0.40603   1.000
    N102    N    0.48866   0.63972   0.35901   1.000
    N103    N    0.42345   0.20136   0.45053   1.000
    N104    N    0.56513   0.11604   0.30308   1.000
    N105    N    0.95747   0.18210   0.65232   1.000
    N106    N    0.83636   0.39320   0.64934   1.000
    N107    N    0.02819   0.49271   0.59505   1.000
    N108    N    0.14377   0.28746   0.59435   1.000
    N109    N    0.98606   0.85993   0.64179   1.000
    N110    N    0.92108   0.30385   0.54926   1.000
    N111    N    0.05739   0.38314   0.69732   1.000
loop_
    _geom_bond_atom_site_label_1
    _geom_bond_atom_site_label_2
    _geom_bond_distance
    _geom_bond_site_symmetry_2
    _ccdc_geom_bond_type
    C40    N96       1.16990      .   S
    C5     N61       1.16991      .   S
    C3     N59       1.16983      .   S
    C2     N58       1.17103  1_565   S
    C37    N93       1.17113      .   S
    C38    N94       1.17048      .   S
    C4     N60       1.16951  1_455   S
    C39    N95       1.16894      .   S
    N57    C1        1.16914      .   S
    N92    C36       1.16964      .   S
    N56    C0        1.16948      .   S
    N91    C35       1.16916      .   S
    N62    C6        1.16944      .   S
    N97    C41       1.16920      .   S
    C27    N83       1.16939      .   S
    C48    N104      1.16921      .   S
    C42    N98       1.16845      .   S
    C21    N77       1.16896      .   S
    C22    N78       1.16989      .   S
    C43    N99       1.16916      .   S
    N81    C25       1.16925  1_455   S
    N102   C46       1.16896      .   S
    N79    C23       1.16989      .   S
    N80    C24       1.16978      .   S
    N101   C45       1.16988      .   S
    N100   C44       1.17011  1_545   S
    N82    C26       1.17085      .   S
    N103   C47       1.17048      .   S
    C54    N110      1.17032      .   S
    C19    N75       1.17053      .   S
    C17    N73       1.17008      .   S
    C52    N108      1.16995      .   S
    C51    N107      1.16999      .   S
    C16    N72       1.17030  1_545   S
    C53    N109      1.16921  1_455   S
    C18    N74       1.16955      .   S
    N106   C50       1.16920      .   S
    N71    C15       1.16933      .   S
    N105   C49       1.16914      .   S
    N70    C14       1.16897      .   S
    N76    C20       1.16937      .   S
    N111   C55       1.16901      .   S
    C34    N90       1.16936      .   S
    C13    N69       1.16919      .   S
    C28    N84       1.16913      .   S
    C7     N63       1.16860      .   S
    C29    N85       1.16910      .   S
    C8     N64       1.16905      .   S
    N67    C11       1.16884      .   S
    N88    C32       1.16775  1_455   S
    N87    C31       1.16982      .   S
    N86    C30       1.17033  1_565   S
    N65    C9        1.16983      .   S
    N66    C10       1.16996      .   S
    N89    C33       1.17005      .   S
    N68    C12       1.17017      .   S
