# CIF file generated by openbabel 2.4.90, see http://openbabel.sf.net
data_I
_chemical_name_common ''
_cell_length_a 12.906
_cell_length_b 14.615
_cell_length_c 15.125
_cell_angle_alpha 90.005
_cell_angle_beta 90.014
_cell_angle_gamma 89.976
_space_group_name_H-M_alt 'P 1'
_space_group_name_Hall 'P 1'
loop_
    _symmetry_equiv_pos_as_xyz
    x,y,z
loop_
    _atom_site_label
    _atom_site_type_symbol
    _atom_site_fract_x
    _atom_site_fract_y
    _atom_site_fract_z
    _atom_site_occupancy
    C0      C    0.43261   0.63922   0.58093   1.000
    C1      C    0.93295   0.63977   0.58160   1.000
    C2      C    0.43921   0.35932   0.85362   1.000
    C3      C    0.93725   0.36179   0.85600   1.000
    C4      C    0.31681   0.35920   0.07993   1.000
    C5      C    0.81697   0.35877   0.08181   1.000
    C6      C    0.31188   0.63762   0.35412   1.000
    C7      C    0.81031   0.63723   0.35580   1.000
    C8      C    0.06698   0.14026   0.91893   1.000
    C9      C    0.56716   0.13917   0.91913   1.000
    C10     C    0.06139   0.86259   0.64438   1.000
    C11     C    0.56076   0.85926   0.64640   1.000
    C12     C    0.18282   0.85941   0.41837   1.000
    C13     C    0.68296   0.85914   0.42014   1.000
    C14     C    0.18980   0.13736   0.14394   1.000
    C15     C    0.68793   0.13760   0.14609   1.000
    O16     O    0.35599   0.69509   0.58088   1.000
    O17     O    0.85652   0.69579   0.58107   1.000
    O18     O    0.00980   0.65226   0.52934   1.000
    O19     O    0.50934   0.65211   0.52860   1.000
    O20     O    0.38164   0.28886   0.84841   1.000
    O21     O    0.87983   0.29119   0.85180   1.000
    O22     O    0.99658   0.38227   0.92024   1.000
    O23     O    0.49802   0.37900   0.91839   1.000
    O24     O    0.39285   0.30272   0.07997   1.000
    O25     O    0.89331   0.30259   0.08139   1.000
    O26     O    0.24035   0.34728   0.02705   1.000
    O27     O    0.74004   0.34647   0.02953   1.000
    O28     O    0.36969   0.70796   0.34956   1.000
    O29     O    0.86784   0.70779   0.35180   1.000
    O30     O    0.25260   0.61769   0.41849   1.000
    O31     O    0.75048   0.61710   0.41976   1.000
    O32     O    0.14302   0.19667   0.91911   1.000
    O33     O    0.64380   0.19495   0.91930   1.000
    O34     O    0.49029   0.15215   0.97130   1.000
    O35     O    0.99034   0.15238   0.97149   1.000
    O36     O    0.12002   0.79268   0.64785   1.000
    O37     O    0.61834   0.78876   0.65158   1.000
    O38     O    0.50197   0.87900   0.58163   1.000
    O39     O    0.00000   0.88233   0.58122   1.000
    O40     O    0.10606   0.80376   0.41920   1.000
    O41     O    0.60692   0.80272   0.41999   1.000
    O42     O    0.25990   0.84676   0.47040   1.000
    O43     O    0.75938   0.84711   0.47304   1.000
    O44     O    0.13240   0.20804   0.14820   1.000
    O45     O    0.63027   0.20808   0.15069   1.000
    O46     O    0.24928   0.11706   0.07986   1.000
    O47     O    0.74704   0.11748   0.08165   1.000
loop_
    _geom_bond_atom_site_label_1
    _geom_bond_atom_site_label_2
    _geom_bond_distance
    _geom_bond_site_symmetry_2
    _ccdc_geom_bond_type
    O26    C4        1.28203      .   S
    O27    C5        1.28175      .   S
    O46    C14       1.27152      .   S
    C4     O24       1.28213      .   S
    O25    C5        1.28227      .   S
    O47    C15       1.27225      .   S
    C14    O44       1.27251      .   S
    C15    O45       1.27236      .   S
    O28    C6        1.27237      .   S
    O29    C7        1.27247      .   S
    C6     O30       1.27224      .   S
    C7     O31       1.27246      .   S
    C12    O40       1.28210      .   S
    C12    O42       1.28162      .   S
    O41    C13       1.28215      .   S
    C13    O43       1.28191      .   S
    O19    C0        1.28190      .   S
    O18    C1        1.28154  1_455   S
    O16    C0        1.28211      .   S
    O17    C1        1.28177      .   S
    O39    C10       1.27400      .   S
    O38    C11       1.27210      .   S
    C10    O36       1.27227      .   S
    C11    O37       1.27242      .   S
    O20    C2        1.27246      .   S
    O21    C3        1.27216      .   S
    C2     O23       1.27211      .   S
    C3     O22       1.27268      .   S
    C8     O32       1.28202      .   S
    C8     O35       1.28139  1_455   S
    C9     O33       1.28210      .   S
    C9     O34       1.28176      .   S
