# CIF file generated by openbabel 2.4.90, see http://openbabel.sf.net
data_I
_chemical_name_common ''
_cell_length_a 12.906
_cell_length_b 14.615
_cell_length_c 15.125
_cell_angle_alpha 90.005
_cell_angle_beta 90.014
_cell_angle_gamma 89.976
_space_group_name_H-M_alt 'P 1'
_space_group_name_Hall 'P 1'
loop_
    _symmetry_equiv_pos_as_xyz
    x,y,z
loop_
    _atom_site_label
    _atom_site_type_symbol
    _atom_site_fract_x
    _atom_site_fract_y
    _atom_site_fract_z
    _atom_site_occupancy
    Ca0     Ca   0.93263   0.79731   0.46586   1.000
    Ca1     Ca   0.31691   0.20174   0.96431   1.000
    Ca2     Ca   0.81679   0.20124   0.96631   1.000
    Ca3     Ca   0.06685   0.29762   0.03462   1.000
    Ca4     Ca   0.56678   0.29646   0.03482   1.000
    Ca5     Ca   0.18309   0.70184   0.53390   1.000
    Ca6     Ca   0.68276   0.70147   0.53559   1.000
    Ca7     Ca   0.43310   0.79656   0.46521   1.000
    C8      C    0.43261   0.63922   0.58093   1.000
    C9      C    0.93295   0.63977   0.58160   1.000
    C10     C    0.43921   0.35932   0.85362   1.000
    C11     C    0.93725   0.36179   0.85600   1.000
    C12     C    0.31681   0.35920   0.07993   1.000
    C13     C    0.81697   0.35877   0.08181   1.000
    C14     C    0.31188   0.63762   0.35412   1.000
    C15     C    0.81031   0.63723   0.35580   1.000
    C16     C    0.06698   0.14026   0.91893   1.000
    C17     C    0.56716   0.13917   0.91913   1.000
    C18     C    0.06139   0.86259   0.64438   1.000
    C19     C    0.56076   0.85926   0.64640   1.000
    C20     C    0.18282   0.85941   0.41837   1.000
    C21     C    0.68296   0.85914   0.42014   1.000
    C22     C    0.18980   0.13736   0.14394   1.000
    C23     C    0.68793   0.13760   0.14609   1.000
    O24     O    0.35599   0.69509   0.58088   1.000
    O25     O    0.85652   0.69579   0.58107   1.000
    O26     O    0.00980   0.65226   0.52934   1.000
    O27     O    0.50934   0.65211   0.52860   1.000
    O28     O    0.38164   0.28886   0.84841   1.000
    O29     O    0.87983   0.29119   0.85180   1.000
    O30     O    0.99658   0.38227   0.92024   1.000
    O31     O    0.49802   0.37900   0.91839   1.000
    O32     O    0.39285   0.30272   0.07997   1.000
    O33     O    0.89331   0.30259   0.08139   1.000
    O34     O    0.24035   0.34728   0.02705   1.000
    O35     O    0.74004   0.34647   0.02953   1.000
    O36     O    0.36969   0.70796   0.34956   1.000
    O37     O    0.86784   0.70779   0.35180   1.000
    O38     O    0.25260   0.61769   0.41849   1.000
    O39     O    0.75048   0.61710   0.41976   1.000
    O40     O    0.14302   0.19667   0.91911   1.000
    O41     O    0.64380   0.19495   0.91930   1.000
    O42     O    0.49029   0.15215   0.97130   1.000
    O43     O    0.99034   0.15238   0.97149   1.000
    O44     O    0.12002   0.79268   0.64785   1.000
    O45     O    0.61834   0.78876   0.65158   1.000
    O46     O    0.50197   0.87900   0.58163   1.000
    O47     O    0.00000   0.88233   0.58122   1.000
    O48     O    0.10606   0.80376   0.41920   1.000
    O49     O    0.60692   0.80272   0.41999   1.000
    O50     O    0.25990   0.84676   0.47040   1.000
    O51     O    0.75938   0.84711   0.47304   1.000
    O52     O    0.13240   0.20804   0.14820   1.000
    O53     O    0.63027   0.20808   0.15069   1.000
    O54     O    0.24928   0.11706   0.07986   1.000
    O55     O    0.74704   0.11748   0.08165   1.000
loop_
    _geom_bond_atom_site_label_1
    _geom_bond_atom_site_label_2
    _geom_bond_distance
    _geom_bond_site_symmetry_2
    _ccdc_geom_bond_type
    O34    C12       1.28203      .   S
    O35    C13       1.28175      .   S
    Ca3    O52       2.31943      .   S
    Ca3    O30       2.31182  1_454   S
    Ca4    O53       2.32590      .   S
    Ca4    O31       2.31146  1_554   S
    O54    C22       1.27152      .   S
    O54    Ca1       2.31300  1_554   S
    C12    O32       1.28213      .   S
    O33    C13       1.28227      .   S
    O55    C23       1.27225      .   S
    O55    Ca2       2.31392  1_554   S
    C22    O52       1.27251      .   S
    C23    O53       1.27236      .   S
    O36    C14       1.27237      .   S
    O36    Ca7       2.32508      .   S
    O37    C15       1.27247      .   S
    O37    Ca0       2.32099      .   S
    C14    O38       1.27224      .   S
    C15    O39       1.27246      .   S
    C20    O48       1.28210      .   S
    C20    O50       1.28162      .   S
    O38    Ca5       2.31600      .   S
    O39    Ca6       2.31369      .   S
    O49    C21       1.28215      .   S
    C21    O51       1.28191      .   S
    Ca7    O46       2.31125      .   S
    Ca0    O47       2.31169  1_655   S
    O27    C8        1.28190      .   S
    O26    C9        1.28154  1_455   S
    Ca5    O44       2.32271      .   S
    Ca6    O45       2.32298      .   S
    O24    C8        1.28211      .   S
    O25    C9        1.28177      .   S
    O47    C18       1.27400      .   S
    O46    C19       1.27210      .   S
    C18    O44       1.27227      .   S
    C19    O45       1.27242      .   S
    O28    C10       1.27246      .   S
    O28    Ca1       2.32254      .   S
    O29    C11       1.27216      .   S
    O29    Ca2       2.32204      .   S
    C10    O31       1.27211      .   S
    C11    O30       1.27268      .   S
    C16    O40       1.28202      .   S
    C16    O43       1.28139  1_455   S
    C17    O41       1.28210      .   S
    C17    O42       1.28176      .   S
    O24    Ca7       2.50062      .   S
    O24    Ca5       2.34365      .   S
    O25    Ca0       2.49105      .   S
    O25    Ca6       2.34695      .   S
    O26    Ca0       2.53097  1_455   S
    O26    Ca5       2.35225      .   S
    O27    Ca7       2.51851      .   S
    O27    Ca6       2.35418      .   S
    O32    Ca1       2.48970  1_554   S
    O32    Ca4       2.34831      .   S
    O33    Ca2       2.48970  1_554   S
    O33    Ca3       2.35011  1_655   S
    O34    Ca1       2.52974  1_554   S
    O34    Ca3       2.35688      .   S
    O35    Ca2       2.52953  1_554   S
    O35    Ca4       2.35420      .   S
    O40    Ca1       2.34707      .   S
    O40    Ca3       2.48892  1_556   S
    O41    Ca2       2.34473      .   S
    O41    Ca4       2.49814  1_556   S
    O42    Ca1       2.35416      .   S
    O42    Ca4       2.51928  1_556   S
    O43    Ca2       2.35196      .   S
    O43    Ca3       2.52867  1_656   S
    O48    Ca0       2.34900  1_455   S
    O48    Ca5       2.49302      .   S
    O49    Ca7       2.34716      .   S
    O49    Ca6       2.49065      .   S
    O50    Ca7       2.35367      .   S
    O50    Ca5       2.52855      .   S
    O51    Ca0       2.35376      .   S
    O51    Ca6       2.53109      .   S
