# CIF file generated by openbabel 2.4.90, see http://openbabel.sf.net
data_I
_chemical_name_common ''
_cell_length_a 12.906
_cell_length_b 14.615
_cell_length_c 15.125
_cell_angle_alpha 90.005
_cell_angle_beta 90.014
_cell_angle_gamma 89.976
_space_group_name_H-M_alt 'P 1'
_space_group_name_Hall 'P 1'
loop_
    _symmetry_equiv_pos_as_xyz
    x,y,z
loop_
    _atom_site_label
    _atom_site_type_symbol
    _atom_site_fract_x
    _atom_site_fract_y
    _atom_site_fract_z
    _atom_site_occupancy
    Ca0     Ca   0.93263   0.79731   0.46586   1.000
    Ca1     Ca   0.31691   0.20174   0.96431   1.000
    Ca2     Ca   0.81679   0.20124   0.96631   1.000
    Ca3     Ca   0.06685   0.29762   0.03462   1.000
    Ca4     Ca   0.56678   0.29646   0.03482   1.000
    Ca5     Ca   0.18309   0.70184   0.53390   1.000
    Ca6     Ca   0.68276   0.70147   0.53559   1.000
    Ca7     Ca   0.43310   0.79656   0.46521   1.000
