# CIF file generated by openbabel 2.4.90, see http://openbabel.sf.net
data_I
_chemical_name_common ''
_cell_length_a 12.906
_cell_length_b 14.615
_cell_length_c 15.125
_cell_angle_alpha 90.005
_cell_angle_beta 90.014
_cell_angle_gamma 89.976
_space_group_name_H-M_alt 'P 1'
_space_group_name_Hall 'P 1'
loop_
    _symmetry_equiv_pos_as_xyz
    x,y,z
loop_
    _atom_site_label
    _atom_site_type_symbol
    _atom_site_fract_x
    _atom_site_fract_y
    _atom_site_fract_z
    _atom_site_occupancy
    C0      C    0.43261   0.63922   0.58093   1.000
    C1      C    0.93295   0.63977   0.58160   1.000
    C2      C    0.43921   0.35932   0.85362   1.000
    C3      C    0.93725   0.36179   0.85600   1.000
    C4      C    0.31681   0.35920   0.07993   1.000
    C5      C    0.81697   0.35877   0.08181   1.000
    C6      C    0.31188   0.63762   0.35412   1.000
    C7      C    0.81031   0.63723   0.35580   1.000
    C8      C    0.06698   0.14026   0.91893   1.000
    C9      C    0.56716   0.13917   0.91913   1.000
    C10     C    0.06139   0.86259   0.64438   1.000
    C11     C    0.56076   0.85926   0.64640   1.000
    C12     C    0.18282   0.85941   0.41837   1.000
    C13     C    0.68296   0.85914   0.42014   1.000
    C14     C    0.18980   0.13736   0.14394   1.000
    C15     C    0.68793   0.13760   0.14609   1.000
