# CIF file generated by openbabel 2.4.90, see http://openbabel.sf.net
data_I
_chemical_name_common ''
_cell_length_a 12.906
_cell_length_b 14.615
_cell_length_c 15.125
_cell_angle_alpha 90.005
_cell_angle_beta 90.014
_cell_angle_gamma 89.976
_space_group_name_H-M_alt 'P 1'
_space_group_name_Hall 'P 1'
loop_
    _symmetry_equiv_pos_as_xyz
    x,y,z
loop_
    _atom_site_label
    _atom_site_type_symbol
    _atom_site_fract_x
    _atom_site_fract_y
    _atom_site_fract_z
    _atom_site_occupancy
    Zr0     Zr   0.43310   0.79656   0.46521   1.000
    Zr1     Zr   0.93263   0.79731   0.46586   1.000
    Zr2     Zr   0.31691   0.20174   0.96431   1.000
    Zr3     Zr   0.81679   0.20124   0.96631   1.000
    Zr4     Zr   0.06685   0.29762   0.03462   1.000
    Zr5     Zr   0.56678   0.29646   0.03482   1.000
    Zr6     Zr   0.18309   0.70184   0.53390   1.000
    Zr7     Zr   0.68276   0.70147   0.53559   1.000
    Zr8     Zr   0.43261   0.63922   0.58093   1.000
    Zr9     Zr   0.93295   0.63977   0.58160   1.000
    Zr10    Zr   0.43921   0.35932   0.85362   1.000
    Zr11    Zr   0.93725   0.36179   0.85600   1.000
    Zr12    Zr   0.31681   0.35920   0.07993   1.000
    Zr13    Zr   0.81697   0.35877   0.08181   1.000
    Zr14    Zr   0.31188   0.63762   0.35412   1.000
    Zr15    Zr   0.81031   0.63723   0.35580   1.000
    Zr16    Zr   0.06698   0.14026   0.91893   1.000
    Zr17    Zr   0.56716   0.13917   0.91913   1.000
    Zr18    Zr   0.06139   0.86259   0.64438   1.000
    Zr19    Zr   0.56076   0.85926   0.64640   1.000
    Zr20    Zr   0.18282   0.85941   0.41837   1.000
    Zr21    Zr   0.68296   0.85914   0.42014   1.000
    Zr22    Zr   0.18980   0.13736   0.14394   1.000
    Zr23    Zr   0.68793   0.13760   0.14609   1.000
    Zr24    Zr   0.35599   0.69509   0.58088   1.000
    Zr25    Zr   0.85652   0.69579   0.58107   1.000
    Zr26    Zr   0.00980   0.65226   0.52934   1.000
    Zr27    Zr   0.50934   0.65211   0.52860   1.000
    Zr28    Zr   0.38164   0.28886   0.84841   1.000
    Zr29    Zr   0.87983   0.29119   0.85180   1.000
    Zr30    Zr   0.99658   0.38227   0.92024   1.000
    Zr31    Zr   0.49802   0.37900   0.91839   1.000
    Zr32    Zr   0.39285   0.30272   0.07997   1.000
    Zr33    Zr   0.89331   0.30259   0.08139   1.000
    Zr34    Zr   0.24035   0.34728   0.02705   1.000
    Zr35    Zr   0.74004   0.34647   0.02953   1.000
    Zr36    Zr   0.36969   0.70796   0.34956   1.000
    Zr37    Zr   0.86784   0.70779   0.35180   1.000
    Zr38    Zr   0.25260   0.61769   0.41849   1.000
    Zr39    Zr   0.75048   0.61710   0.41976   1.000
    Zr40    Zr   0.14302   0.19667   0.91911   1.000
    Zr41    Zr   0.64380   0.19495   0.91930   1.000
    Zr42    Zr   0.49029   0.15215   0.97130   1.000
    Zr43    Zr   0.99034   0.15238   0.97149   1.000
    Zr44    Zr   0.12002   0.79268   0.64785   1.000
    Zr45    Zr   0.61834   0.78876   0.65158   1.000
    Zr46    Zr   0.50197   0.87900   0.58163   1.000
    Zr47    Zr   0.00000   0.88233   0.58122   1.000
    Zr48    Zr   0.10606   0.80376   0.41920   1.000
    Zr49    Zr   0.60692   0.80272   0.41999   1.000
    Zr50    Zr   0.25990   0.84676   0.47040   1.000
    Zr51    Zr   0.75938   0.84711   0.47304   1.000
    Zr52    Zr   0.13240   0.20804   0.14820   1.000
    Zr53    Zr   0.63027   0.20808   0.15069   1.000
    Zr54    Zr   0.24928   0.11706   0.07986   1.000
    Zr55    Zr   0.74704   0.11748   0.08165   1.000
    O56     O    0.27858   0.35324   0.05349   1.000
    O57     O    0.77850   0.35262   0.05567   1.000
    O58     O    0.09963   0.25283   0.09141   1.000
    O59     O    0.03172   0.33995   0.97743   1.000
    O60     O    0.59852   0.25227   0.09275   1.000
    O61     O    0.53240   0.33773   0.97660   1.000
    O62     O    0.21954   0.12721   0.11190   1.000
    O63     O    0.28309   0.15940   0.02208   1.000
    O64     O    0.35483   0.33096   0.07995   1.000
    O65     O    0.85514   0.33068   0.08160   1.000
    O66     O    0.71749   0.12754   0.11387   1.000
    O67     O    0.78192   0.15936   0.02398   1.000
    O68     O    0.16110   0.17270   0.14607   1.000
    O69     O    0.65910   0.17284   0.14839   1.000
    O70     O    0.34078   0.67279   0.35184   1.000
    O71     O    0.40139   0.75226   0.40738   1.000
    O72     O    0.83907   0.67251   0.35380   1.000
    O73     O    0.90024   0.75255   0.40883   1.000
    O74     O    0.28224   0.62766   0.38630   1.000
    O75     O    0.78039   0.62716   0.38778   1.000
    O76     O    0.14444   0.83159   0.41878   1.000
    O77     O    0.22136   0.85309   0.44438   1.000
    O78     O    0.21785   0.65976   0.47619   1.000
    O79     O    0.71662   0.65928   0.47767   1.000
    O80     O    0.64494   0.83093   0.42006   1.000
    O81     O    0.72117   0.85313   0.44659   1.000
    O82     O    0.46753   0.83778   0.52342   1.000
    O83     O    0.96632   0.83982   0.52354   1.000
    O84     O    0.47097   0.64567   0.55476   1.000
    O85     O    0.97138   0.64602   0.55547   1.000
    O86     O    0.15156   0.74726   0.59087   1.000
    O87     O    0.65055   0.74511   0.59358   1.000
    O88     O    0.39430   0.66716   0.58090   1.000
    O89     O    0.89474   0.66778   0.58133   1.000
    O90     O    0.03070   0.87246   0.61280   1.000
    O91     O    0.53137   0.86913   0.61401   1.000
    O92     O    0.09071   0.82763   0.64611   1.000
    O93     O    0.58955   0.82401   0.64899   1.000
    O94     O    0.41042   0.32409   0.85101   1.000
    O95     O    0.34928   0.24530   0.90636   1.000
    O96     O    0.90854   0.32649   0.85390   1.000
    O97     O    0.84831   0.24622   0.90905   1.000
    O98     O    0.46861   0.36916   0.88600   1.000
    O99     O    0.96691   0.37203   0.88812   1.000
    O100    O    0.10500   0.16847   0.91902   1.000
    O101    O    0.02866   0.14632   0.94521   1.000
    O102    O    0.60548   0.16706   0.91921   1.000
    O103    O    0.52872   0.14566   0.94521   1.000
    O104    O    0.39454   0.74583   0.52304   1.000
    O105    O    0.26954   0.69847   0.55739   1.000
    O106    O    0.89458   0.74655   0.52346   1.000
    O107    O    0.76964   0.69863   0.55833   1.000
    O108    O    0.97122   0.72479   0.49760   1.000
    O109    O    0.09645   0.67705   0.53162   1.000
    O110    O    0.47122   0.72434   0.49690   1.000
    O111    O    0.59605   0.67679   0.53209   1.000
    O112    O    0.35488   0.25223   0.02214   1.000
    O113    O    0.47981   0.29959   0.05739   1.000
    O114    O    0.85505   0.25192   0.02385   1.000
    O115    O    0.98008   0.30011   0.05800   1.000
    O116    O    0.27863   0.27451   0.99568   1.000
    O117    O    0.15360   0.32245   0.03083   1.000
    O118    O    0.77842   0.27385   0.99792   1.000
    O119    O    0.65341   0.32146   0.03217   1.000
    O120    O    0.22997   0.19921   0.94171   1.000
    O121    O    0.10494   0.24715   0.97686   1.000
    O122    O    0.73030   0.19810   0.94280   1.000
    O123    O    0.60529   0.24570   0.97706   1.000
    O124    O    0.40360   0.17694   0.96780   1.000
    O125    O    0.52854   0.22430   0.00306   1.000
    O126    O    0.90357   0.17681   0.96890   1.000
    O127    O    0.02860   0.22500   0.00305   1.000
    O128    O    0.01935   0.80054   0.44253   1.000
    O129    O    0.14458   0.75280   0.47655   1.000
    O130    O    0.52001   0.79964   0.44260   1.000
    O131    O    0.64484   0.75209   0.47779   1.000
    O132    O    0.34650   0.82166   0.46780   1.000
    O133    O    0.22150   0.77430   0.50215   1.000
    O134    O    0.84600   0.82221   0.46945   1.000
    O135    O    0.72107   0.77429   0.50431   1.000
    N136    N    0.46842   0.42891   0.64983   1.000
    O137    O    0.45307   0.41104   0.73294   1.000
    O138    O    0.45052   0.51476   0.63135   1.000
    N139    N    0.03229   0.93046   0.84824   1.000
    O140    O    0.04779   0.91328   0.76522   1.000
    O141    O    0.04982   0.01617   0.86752   1.000
    N142    N    0.21849   0.06900   0.34814   1.000
    O143    O    0.20322   0.08640   0.26493   1.000
    O144    O    0.20058   0.98338   0.36715   1.000
    N145    N    0.28223   0.56913   0.14997   1.000
    O146    O    0.29965   0.48336   0.13104   1.000
    O147    O    0.29780   0.58656   0.23317   1.000
    N148    N    0.71771   0.06908   0.35021   1.000
    O149    O    0.70209   0.08654   0.26703   1.000
    O150    O    0.70022   0.98332   0.36910   1.000
    N151    N    0.95796   0.42985   0.65196   1.000
    O152    O    0.94682   0.41257   0.73507   1.000
    O153    O    0.94529   0.51561   0.63286   1.000
    N154    N    0.53153   0.92890   0.85019   1.000
    O155    O    0.54689   0.91100   0.76707   1.000
    O156    O    0.54936   0.01473   0.86868   1.000
    N157    N    0.78167   0.56869   0.15173   1.000
    O158    O    0.79694   0.58616   0.23490   1.000
    O159    O    0.79945   0.48295   0.13283   1.000
loop_
    _geom_bond_atom_site_label_1
    _geom_bond_atom_site_label_2
    _geom_bond_distance
    _geom_bond_site_symmetry_2
    _ccdc_geom_bond_type
    Zr34   O56       0.64101      .   S
    Zr12   O56       0.64101      .   S
    Zr35   O57       0.64088      .   S
    Zr13   O57       0.64088      .   S
    Zr4    O58       1.15972      .   S
    Zr52   O58       1.15972      .   S
    Zr4    O59       1.15591  1_554   S
    Zr30   O59       1.15591  1_655   S
    Zr5    O60       1.16295      .   S
    Zr53   O60       1.16295      .   S
    Zr5    O61       1.15573  1_554   S
    Zr31   O61       1.15573      .   S
    Zr54   O62       0.63576      .   S
    Zr22   O62       0.63576      .   S
    Zr54   O63       1.15650      .   S
    Zr2    O63       1.15650  1_556   S
    Zr12   O64       0.64107      .   S
    Zr32   O64       0.64107      .   S
    Zr33   O65       0.64114      .   S
    Zr13   O65       0.64114      .   S
    Zr55   O66       0.63612      .   S
    Zr23   O66       0.63612      .   S
    Zr55   O67       1.15696      .   S
    Zr3    O67       1.15696  1_556   S
    Zr22   O68       0.63625      .   S
    Zr52   O68       0.63625      .   S
    Zr23   O69       0.63618      .   S
    Zr53   O69       0.63618      .   S
    Zr36   O70       0.63619      .   S
    Zr14   O70       0.63619      .   S
    Zr36   O71       1.16254      .   S
    Zr0    O71       1.16254      .   S
    Zr37   O72       0.63623      .   S
    Zr15   O72       0.63623      .   S
    Zr37   O73       1.16050      .   S
    Zr1    O73       1.16050      .   S
    Zr14   O74       0.63612      .   S
    Zr38   O74       0.63612      .   S
    Zr15   O75       0.63623      .   S
    Zr39   O75       0.63623      .   S
    Zr20   O76       0.64105      .   S
    Zr48   O76       0.64105      .   S
    Zr20   O77       0.64081      .   S
    Zr50   O77       0.64081      .   S
    Zr38   O78       1.15800      .   S
    Zr6    O78       1.15800      .   S
    Zr39   O79       1.15684      .   S
    Zr7    O79       1.15684      .   S
    Zr49   O80       0.64107      .   S
    Zr21   O80       0.64107      .   S
    Zr21   O81       0.64096      .   S
    Zr51   O81       0.64096      .   S
    Zr0    O82       1.15563      .   S
    Zr46   O82       1.15563      .   S
    Zr1    O83       1.15584      .   S
    Zr47   O83       1.15584  1_455   S
    Zr27   O84       0.64095      .   S
    Zr8    O84       0.64095      .   S
    Zr26   O85       0.64077  1_455   S
    Zr9    O85       0.64077      .   S
    Zr6    O86       1.16135      .   S
    Zr44   O86       1.16135      .   S
    Zr7    O87       1.16149      .   S
    Zr45   O87       1.16149      .   S
    Zr24   O88       0.64105      .   S
    Zr8    O88       0.64105      .   S
    Zr25   O89       0.64089      .   S
    Zr9    O89       0.64089      .   S
    Zr47   O90       0.63700      .   S
    Zr18   O90       0.63700      .   S
    Zr46   O91       0.63605      .   S
    Zr19   O91       0.63605      .   S
    Zr18   O92       0.63613      .   S
    Zr44   O92       0.63613      .   S
    Zr19   O93       0.63621      .   S
    Zr45   O93       0.63621      .   S
    Zr28   O94       0.63623      .   S
    Zr10   O94       0.63623      .   S
    Zr28   O95       1.16127      .   S
    Zr2    O95       1.16127      .   S
    Zr29   O96       0.63608      .   S
    Zr11   O96       0.63608      .   S
    Zr29   O97       1.16102      .   S
    Zr3    O97       1.16102      .   S
    Zr10   O98       0.63606      .   S
    Zr31   O98       0.63606      .   S
    Zr11   O99       0.63634      .   S
    Zr30   O99       0.63634      .   S
    Zr16   O100      0.64101      .   S
    Zr40   O100      0.64101      .   S
    Zr16   O101      0.64069      .   S
    Zr43   O101      0.64069  1_655   S
    Zr17   O102      0.64105      .   S
    Zr41   O102      0.64105      .   S
    Zr17   O103      0.64088      .   S
    Zr42   O103      0.64088      .   S
    Zr24   O104      1.25031      .   S
    Zr0    O104      1.25031      .   S
    Zr24   O105      1.17183      .   S
    Zr6    O105      1.17183      .   S
    Zr25   O106      1.24552      .   S
    Zr1    O106      1.24552      .   S
    Zr25   O107      1.17348      .   S
    Zr7    O107      1.17348      .   S
    Zr26   O108      1.26549  1_455   S
    Zr1    O108      1.26549      .   S
    Zr26   O109      1.17613      .   S
    Zr6    O109      1.17613      .   S
    Zr27   O110      1.25925      .   S
    Zr0    O110      1.25925      .   S
    Zr27   O111      1.17709      .   S
    Zr7    O111      1.17709      .   S
    Zr32   O112      1.24485      .   S
    Zr2    O112      1.24485  1_556   S
    Zr32   O113      1.17415      .   S
    Zr5    O113      1.17415      .   S
    Zr33   O114      1.24485      .   S
    Zr3    O114      1.24485  1_556   S
    Zr33   O115      1.17505      .   S
    Zr4    O115      1.17505  1_455   S
    Zr34   O116      1.26487  1_554   S
    Zr2    O116      1.26487      .   S
    Zr34   O117      1.17844      .   S
    Zr4    O117      1.17844      .   S
    Zr35   O118      1.26477  1_554   S
    Zr3    O118      1.26477      .   S
    Zr35   O119      1.17710      .   S
    Zr5    O119      1.17710      .   S
    Zr40   O120      1.17353      .   S
    Zr2    O120      1.17353      .   S
    Zr40   O121      1.24446      .   S
    Zr4    O121      1.24446  1_554   S
    Zr41   O122      1.17237      .   S
    Zr3    O122      1.17237      .   S
    Zr41   O123      1.24907      .   S
    Zr5    O123      1.24907  1_554   S
    Zr42   O124      1.17708      .   S
    Zr2    O124      1.17708      .   S
    Zr42   O125      1.25964  1_556   S
    Zr5    O125      1.25964      .   S
    Zr43   O126      1.17598      .   S
    Zr3    O126      1.17598      .   S
    Zr43   O127      1.26433  1_656   S
    Zr4    O127      1.26433      .   S
    Zr48   O128      1.17450      .   S
    Zr1    O128      1.17450  1_655   S
    Zr48   O129      1.24651      .   S
    Zr6    O129      1.24651      .   S
    Zr49   O130      1.17358      .   S
    Zr0    O130      1.17358      .   S
    Zr49   O131      1.24533      .   S
    Zr7    O131      1.24533      .   S
    Zr50   O132      1.17684      .   S
    Zr0    O132      1.17684      .   S
    Zr50   O133      1.26427      .   S
    Zr6    O133      1.26427      .   S
    Zr51   O134      1.17688      .   S
    Zr1    O134      1.17688      .   S
    Zr51   O135      1.26554      .   S
    Zr7    O135      1.26554      .   S
    N136   O137      1.29918      .   S
    Zr10   O137      1.98375      .   S
    N136   O138      1.30595      .   S
    Zr8    O138      1.98584      .   S
    N139   O140      1.29605      .   S
    Zr18   O140      1.97990      .   S
    N139   O141      1.30591  1_565   S
    Zr16   O141      1.98570      .   S
    N142   O143      1.29900      .   S
    Zr22   O143      1.98335      .   S
    N142   O144      1.30470  1_545   S
    Zr20   O144      1.98391      .   S
    N145   O146      1.30522      .   S
    Zr12   O146      1.98468      .   S
    N145   O147      1.29939      .   S
    Zr14   O147      1.98405      .   S
    N148   O149      1.29933      .   S
    Zr23   O149      1.98404      .   S
    N148   O150      1.30537  1_545   S
    Zr21   O150      1.98492      .   S
    N151   O152      1.29033      .   S
    Zr11   O152      1.97785      .   S
    N151   O153      1.29650      .   S
    Zr9    O153      1.97965      .   S
    N154   O155      1.29931      .   S
    Zr19   O155      1.98363      .   S
    N154   O156      1.30577  1_565   S
    Zr17   O156      1.98560      .   S
    N157   O158      1.29865      .   S
    Zr15   O158      1.98253      .   S
    N157   O159      1.30541      .   S
    Zr13   O159      1.98497      .   S
