# CIF file generated by openbabel 2.4.90, see http://openbabel.sf.net
data_I
_chemical_name_common 'VESTA_phase_1'
_cell_length_a 15.44
_cell_length_b 17.79
_cell_length_c 18.318
_cell_angle_alpha 112.232
_cell_angle_beta 90.004
_cell_angle_gamma 89.996
_space_group_name_H-M_alt 'P 1'
_space_group_name_Hall 'P 1'
loop_
    _symmetry_equiv_pos_as_xyz
    x,y,z
loop_
    _atom_site_label
    _atom_site_type_symbol
    _atom_site_fract_x
    _atom_site_fract_y
    _atom_site_fract_z
    _atom_site_occupancy
    Zn0     Zn   0.50003   0.50266   0.83402   1.000
    Zn1     Zn   0.09665   0.00295   0.16680   1.000
    Zn2     Zn   0.59908   0.49677   0.99659   1.000
    Zn3     Zn   0.90009   0.00000   0.16628   1.000
    Zn4     Zn   0.00000   0.99736   0.66599   1.000
    Zn5     Zn   0.59666   0.49706   0.33320   1.000
    Zn6     Zn   0.09908   0.00320   0.50343   1.000
    Zn7     Zn   0.40008   0.49994   0.33370   1.000
    Zn8     Zn   0.49998   0.49735   0.16599   1.000
    Zn9     Zn   0.90337   0.99707   0.83320   1.000
    Zn10    Zn   0.40093   0.50322   0.00342   1.000
    Zn11    Zn   0.09992   0.99993   0.83371   1.000
    Zn12    Zn   0.99997   0.00264   0.33401   1.000
    Zn13    Zn   0.40336   0.50295   0.66680   1.000
    Zn14    Zn   0.90094   0.99680   0.49657   1.000
    Zn15    Zn   0.59993   0.50005   0.66629   1.000
    Zn16    Zn   1.00000   0.99999   0.99999   1.000
    Zn17    Zn   0.50001   0.49999   0.50000   1.000
    H18     H    0.50132   0.39691   0.69736   1.000
    H19     H    0.50151   0.60614   0.97268   1.000
    H20     H    0.99427   0.10688   0.13700   1.000
    H21     H    0.83211   0.16264   0.80626   1.000
    H22     H    0.74736   0.28286   0.89260   1.000
    H23     H    0.62188   0.29559   0.68811   1.000
    H24     H    0.70991   0.17791   0.60156   1.000
    H25     H    0.10549   0.77328   0.87207   1.000
    H26     H    0.20318   0.66477   0.78354   1.000
    H27     H    0.39793   0.73257   0.96439   1.000
    H28     H    0.30027   0.84130   0.05289   1.000
    H29     H    0.67837   0.66085   0.97421   1.000
    H30     H    0.75410   0.78709   0.06108   1.000
    H31     H    0.82093   0.84075   0.85813   1.000
    H32     H    0.74436   0.71514   0.77126   1.000
    H33     H    0.00000   0.10308   0.80266   1.000
    H34     H    0.00000   0.89387   0.52734   1.000
    H35     H    0.49429   0.39310   0.36298   1.000
    H36     H    0.33208   0.33733   0.69374   1.000
    H37     H    0.24736   0.21709   0.60735   1.000
    H38     H    0.12190   0.20438   0.81191   1.000
    H39     H    0.20991   0.32208   0.89845   1.000
    H40     H    0.60559   0.72672   0.62796   1.000
    H41     H    0.70331   0.83521   0.71647   1.000
    H42     H    0.89804   0.76731   0.53562   1.000
    H43     H    0.80034   0.65860   0.44713   1.000
    H44     H    0.17835   0.83918   0.52580   1.000
    H45     H    0.25409   0.71295   0.43890   1.000
    H46     H    0.32091   0.65923   0.64185   1.000
    H47     H    0.24434   0.78484   0.72872   1.000
    H48     H    0.49868   0.60309   0.30260   1.000
    H49     H    0.49850   0.39386   0.02733   1.000
    H50     H    0.00573   0.89312   0.86300   1.000
    H51     H    0.16790   0.83736   0.19370   1.000
    H52     H    0.25264   0.71713   0.10733   1.000
    H53     H    0.37812   0.70440   0.31189   1.000
    H54     H    0.29010   0.82209   0.39840   1.000
    H55     H    0.89451   0.22671   0.12794   1.000
    H56     H    0.79681   0.33522   0.21647   1.000
    H57     H    0.60207   0.26742   0.03562   1.000
    H58     H    0.69973   0.15869   0.94712   1.000
    H59     H    0.32164   0.33915   0.02570   1.000
    H60     H    0.24590   0.21292   0.93891   1.000
    H61     H    0.17907   0.15926   0.14186   1.000
    H62     H    0.25564   0.28486   0.22873   1.000
    H63     H    0.99870   0.89692   0.19734   1.000
    H64     H    0.99849   0.10613   0.47267   1.000
    H65     H    0.50574   0.60689   0.63701   1.000
    H66     H    0.66793   0.66267   0.30625   1.000
    H67     H    0.75266   0.78291   0.39265   1.000
    H68     H    0.87811   0.79562   0.18809   1.000
    H69     H    0.79010   0.67793   0.10155   1.000
    H70     H    0.39441   0.27329   0.37204   1.000
    H71     H    0.29668   0.16480   0.28353   1.000
    H72     H    0.10195   0.23271   0.46439   1.000
    H73     H    0.19966   0.34142   0.55288   1.000
    H74     H    0.82166   0.16081   0.47420   1.000
    H75     H    0.74593   0.28705   0.56109   1.000
    H76     H    0.67909   0.34075   0.35810   1.000
    H77     H    0.75565   0.21514   0.27127   1.000
    C78     C    0.83365   0.09558   0.64691   1.000
    C79     C    0.77777   0.16401   0.69830   1.000
    C80     C    0.78697   0.19280   0.78066   1.000
    C81     C    0.73910   0.25930   0.82892   1.000
    C82     C    0.67939   0.29687   0.79582   1.000
    C83     C    0.62844   0.36920   0.84742   1.000
    C84     C    0.66831   0.26651   0.71369   1.000
    C85     C    0.71754   0.20111   0.66534   1.000
    C86     C    0.13827   0.87937   0.02021   1.000
    C87     C    0.19690   0.81403   0.96780   1.000
    C88     C    0.16979   0.76421   0.89172   1.000
    C89     C    0.22403   0.70382   0.84250   1.000
    C90     C    0.30659   0.69207   0.86857   1.000
    C91     C    0.36496   0.62653   0.81597   1.000
    C92     C    0.33369   0.74181   0.94469   1.000
    C93     C    0.27949   0.80231   0.99389   1.000
    C94     C    0.65890   0.60627   0.81575   1.000
    C95     C    0.70643   0.68058   0.86740   1.000
    C96     C    0.70922   0.70066   0.94917   1.000
    C97     C    0.75193   0.77053   0.99755   1.000
    C98     C    0.79304   0.82093   0.96494   1.000
    C99     C    0.84122   0.89461   0.01693   1.000
    C100    C    0.79001   0.80100   0.88320   1.000
    C101    C    0.74705   0.73124   0.83477   1.000
    C102    C    0.33363   0.40441   0.85300   1.000
    C103    C    0.27776   0.33597   0.80162   1.000
    C104    C    0.28696   0.30716   0.71935   1.000
    C105    C    0.23910   0.24066   0.67100   1.000
    C106    C    0.17941   0.20308   0.70419   1.000
    C107    C    0.12847   0.13075   0.65260   1.000
    C108    C    0.16833   0.23346   0.78632   1.000
    C109    C    0.21754   0.29887   0.83467   1.000
    C110    C    0.63831   0.62062   0.47980   1.000
    C111    C    0.69699   0.68593   0.53222   1.000
    C112    C    0.66989   0.73577   0.60830   1.000
    C113    C    0.72414   0.79614   0.65751   1.000
    C114    C    0.80671   0.80787   0.63143   1.000
    C115    C    0.86505   0.87344   0.68403   1.000
    C116    C    0.83380   0.75810   0.55532   1.000
    C117    C    0.77958   0.69761   0.50614   1.000
    C118    C    0.15888   0.89374   0.68426   1.000
    C119    C    0.20641   0.81943   0.63260   1.000
    C120    C    0.20921   0.79936   0.55084   1.000
    C121    C    0.25192   0.72950   0.50240   1.000
    C122    C    0.29302   0.67908   0.53504   1.000
    C123    C    0.34120   0.60540   0.48303   1.000
    C124    C    0.29000   0.69900   0.61678   1.000
    C125    C    0.24703   0.76875   0.66522   1.000
    C126    C    0.16636   0.90442   0.35309   1.000
    C127    C    0.22223   0.83599   0.30161   1.000
    C128    C    0.21303   0.80719   0.21934   1.000
    C129    C    0.26090   0.74069   0.17108   1.000
    C130    C    0.32061   0.70312   0.20418   1.000
    C131    C    0.37155   0.63079   0.15258   1.000
    C132    C    0.33169   0.73348   0.28631   1.000
    C133    C    0.28246   0.79888   0.33465   1.000
    C134    C    0.86174   0.12063   0.97900   1.000
    C135    C    0.80309   0.18596   0.03220   1.000
    C136    C    0.83021   0.23578   0.10828   1.000
    C137    C    0.77597   0.29617   0.15750   1.000
    C138    C    0.69340   0.30792   0.13143   1.000
    C139    C    0.63504   0.37347   0.18404   1.000
    C140    C    0.66631   0.25818   0.05531   1.000
    C141    C    0.72051   0.19768   0.00612   1.000
    C142    C    0.34111   0.39373   0.18425   1.000
    C143    C    0.29358   0.31943   0.13200   1.000
    C144    C    0.29078   0.29934   0.05083   1.000
    C145    C    0.24807   0.22948   0.00244   1.000
    C146    C    0.20697   0.17907   0.03505   1.000
    C147    C    0.15879   0.10539   0.98300   1.000
    C148    C    0.20999   0.19901   0.11679   1.000
    C149    C    0.25295   0.26877   0.16523   1.000
    C150    C    0.66638   0.59560   0.14690   1.000
    C151    C    0.72225   0.66403   0.19837   1.000
    C152    C    0.71306   0.69284   0.28065   1.000
    C153    C    0.76091   0.75934   0.32890   1.000
    C154    C    0.82061   0.79691   0.29580   1.000
    C155    C    0.87156   0.86924   0.34740   1.000
    C156    C    0.83168   0.76654   0.21367   1.000
    C157    C    0.78246   0.70114   0.16533   1.000
    C158    C    0.36169   0.37939   0.52020   1.000
    C159    C    0.30301   0.31408   0.46778   1.000
    C160    C    0.33011   0.26425   0.39170   1.000
    C161    C    0.27585   0.20387   0.34250   1.000
    C162    C    0.19328   0.19214   0.36850   1.000
    C163    C    0.13495   0.12657   0.31598   1.000
    C164    C    0.16620   0.24191   0.44469   1.000
    C165    C    0.22042   0.30240   0.49387   1.000
    C166    C    0.84113   0.10625   0.31574   1.000
    C167    C    0.79359   0.18056   0.36739   1.000
    C168    C    0.79080   0.20063   0.44916   1.000
    C169    C    0.74808   0.27049   0.49755   1.000
    C170    C    0.70698   0.32091   0.46495   1.000
    C171    C    0.65881   0.39459   0.51696   1.000
    C172    C    0.71000   0.30099   0.38321   1.000
    C173    C    0.75296   0.23123   0.33477   1.000
    O174    O    0.50062   0.45549   0.71116   1.000
    O175    O    0.50001   0.54726   0.95647   1.000
    O176    O    0.99693   0.04819   0.12198   1.000
    O177    O    0.33748   0.58903   0.74476   1.000
    O178    O    0.16648   0.91892   0.09076   1.000
    O179    O    0.83267   0.08224   0.57230   1.000
    O180    O    0.56275   0.39061   0.81889   1.000
    O181    O    0.43585   0.61272   0.84318   1.000
    O182    O    0.87833   0.93888   0.98647   1.000
    O183    O    0.65634   0.40419   0.91878   1.000
    O184    O    0.06615   0.89126   0.99358   1.000
    O185    O    0.87753   0.05634   0.67857   1.000
    O186    O    0.62202   0.56237   0.84686   1.000
    O187    O    0.84092   0.90746   0.09130   1.000
    O188    O    0.65949   0.59248   0.74126   1.000
    O189    O    0.00000   0.04450   0.78885   1.000
    O190    O    0.00000   0.95275   0.54353   1.000
    O191    O    0.49693   0.45180   0.37801   1.000
    O192    O    0.83755   0.91096   0.75522   1.000
    O193    O    0.66650   0.58110   0.40924   1.000
    O194    O    0.33265   0.41776   0.92764   1.000
    O195    O    0.06274   0.10939   0.68110   1.000
    O196    O    0.93593   0.88728   0.65681   1.000
    O197    O    0.37832   0.56112   0.51350   1.000
    O198    O    0.15641   0.09571   0.58126   1.000
    O199    O    0.56619   0.60876   0.50644   1.000
    O200    O    0.37750   0.44364   0.82143   1.000
    O201    O    0.12202   0.93766   0.65315   1.000
    O202    O    0.34091   0.59255   0.40867   1.000
    O203    O    0.15948   0.90751   0.75874   1.000
    O204    O    0.49938   0.54451   0.28884   1.000
    O205    O    0.50000   0.45274   0.04350   1.000
    O206    O    0.00308   0.95182   0.87802   1.000
    O207    O    0.66252   0.41097   0.25520   1.000
    O208    O    0.83353   0.08110   0.90924   1.000
    O209    O    0.16734   0.91775   0.42763   1.000
    O210    O    0.43726   0.60940   0.18111   1.000
    O211    O    0.56415   0.38729   0.15682   1.000
    O212    O    0.12168   0.06112   0.01352   1.000
    O213    O    0.34364   0.59578   0.08122   1.000
    O214    O    0.93386   0.10875   0.00642   1.000
    O215    O    0.12249   0.94367   0.32143   1.000
    O216    O    0.37798   0.43764   0.15314   1.000
    O217    O    0.15909   0.09253   0.90869   1.000
    O218    O    0.34052   0.40751   0.25873   1.000
    O219    O    0.99938   0.95550   0.21115   1.000
    O220    O    0.99999   0.04725   0.45647   1.000
    O221    O    0.50309   0.54820   0.62190   1.000
    O222    O    0.16245   0.08906   0.24478   1.000
    O223    O    0.33351   0.41892   0.59076   1.000
    O224    O    0.66736   0.58224   0.07235   1.000
    O225    O    0.93727   0.89062   0.31888   1.000
    O226    O    0.06407   0.11273   0.34319   1.000
    O227    O    0.62168   0.43887   0.48649   1.000
    O228    O    0.84363   0.90427   0.41875   1.000
    O229    O    0.43382   0.39124   0.49356   1.000
    O230    O    0.62250   0.55637   0.17857   1.000
    O231    O    0.87800   0.06235   0.34685   1.000
    O232    O    0.65910   0.40743   0.59132   1.000
    O233    O    0.84053   0.09247   0.24120   1.000
loop_
    _geom_bond_atom_site_label_1
    _geom_bond_atom_site_label_2
    _geom_bond_distance
    _geom_bond_site_symmetry_2
    _ccdc_geom_bond_type
    C145   C146      1.40326      .   S
    C145   C144      1.38985      .   S
    C145   H60       1.08755  1_554   S
    Zn10   O205      2.04544      .   S
    Zn10   O213      1.93626      .   S
    Zn10   O194      1.93727  1_554   S
    C141   C135      1.40454      .   S
    C141   C140      1.39175      .   S
    C141   H58       1.08850  1_554   S
    O214   C134      1.27175  1_554   S
    O214   Zn16      2.15124  1_544   S
    O212   C147      1.26282  1_554   S
    O212   Zn16      2.13772  1_444   S
    C99    O187      1.29322      .   S
    C99    C98       1.49461  1_554   S
    C99    O182      1.26208  1_554   S
    C86    O178      1.29104      .   S
    C86    C87       1.49930  1_554   S
    C86    O184      1.26518  1_554   S
    H59    C144      1.08965      .   S
    H49    O205      0.97509      .   S
    C135   C136      1.40294      .   S
    C135   C134      1.50435  1_554   S
    C146   C148      1.40287      .   S
    C146   C147      1.49494  1_554   S
    H57    C140      1.08887      .   S
    C144   C143      1.39222      .   S
    H28    C93       1.08851  1_554   S
    C140   C138      1.40305      .   S
    H30    C97       1.08755  1_554   S
    O224   C150      1.29461      .   S
    O224   Zn2       1.93717  1_554   S
    O213   C131      1.29083      .   S
    O178   Zn1       1.93952  1_565   S
    O187   Zn3       1.92875  1_565   S
    H69    C157      1.08827      .   S
    H52    C129      1.08868      .   S
    C136   H55       1.08872      .   S
    C136   C137      1.39116      .   S
    C148   H61       1.08843      .   S
    C148   C149      1.39077      .   S
    O176   H20       0.97484      .   S
    O176   Zn3       2.03863      .   S
    C138   C137      1.40442      .   S
    C138   C139      1.49995      .   S
    C143   C149      1.41121      .   S
    C143   C142      1.49823      .   S
    C150   O230      1.26056      .   S
    C150   C151      1.49886      .   S
    C131   O210      1.26401      .   S
    C131   C130      1.49912      .   S
    O216   Zn8       2.13143      .   S
    O216   C142      1.26327      .   S
    O211   Zn8       2.14347      .   S
    O211   C139      1.26485      .   S
    C137   H56       1.08864      .   S
    C149   H62       1.08843      .   S
    C157   C151      1.40319      .   S
    C157   C156      1.39134      .   S
    Zn8    O230      2.13341      .   S
    Zn8    O210      2.13769      .   S
    Zn3    O219      2.03579  1_545   S
    Zn3    O233      1.93050      .   S
    Zn1    O222      1.94000      .   S
    C129   C130      1.40389      .   S
    C129   C128      1.39134      .   S
    C139   O207      1.29077      .   S
    C142   O218      1.29170      .   S
    H68    C156      1.08838      .   S
    H51    C128      1.08857      .   S
    H63    O219      0.97502      .   S
    C151   C152      1.40356      .   S
    C130   C132      1.40337      .   S
    C156   C154      1.40337      .   S
    C128   C127      1.40339      .   S
    O233   C166      1.29276      .   S
    O222   C163      1.29156      .   S
    O207   Zn5       1.94043      .   S
    O218   Zn7       1.93048      .   S
    H77    C173      1.08846      .   S
    C152   H66       1.08808      .   S
    C152   C153      1.39131      .   S
    H71    C161      1.08869      .   S
    C132   H53       1.08840      .   S
    C132   C133      1.39131      .   S
    O204   H48       0.97514      .   S
    O204   Zn5       2.03651      .   S
    C154   C153      1.40387      .   S
    C154   C155      1.49913      .   S
    C127   C133      1.40322      .   S
    C127   C126      1.49887      .   S
    C166   O231      1.26321      .   S
    C166   C167      1.49491      .   S
    C163   O226      1.26480      .   S
    C163   C162      1.49942      .   S
    O225   Zn12      2.13713  1_565   S
    O225   C155      1.26400      .   S
    O215   Zn12      2.13289  1_465   S
    O215   C126      1.26056      .   S
    C153   H67       1.08868      .   S
    Zn5    O193      1.93974      .   S
    Zn7    O191      2.03815      .   S
    Zn7    O202      1.92949      .   S
    Zn12   O226      2.14359  1_655   S
    Zn12   O231      2.13092      .   S
    C133   H54       1.08775      .   S
    C173   C167      1.40379      .   S
    C173   C172      1.39074      .   S
    C161   C162      1.40386      .   S
    C161   C160      1.39109      .   S
    C155   O228      1.29082      .   S
    C126   O209      1.29452      .   S
    H76    C172      1.08901      .   S
    H35    O191      0.97482      .   S
    C167   C168      1.40294      .   S
    C162   C164      1.40415      .   S
    H70    C160      1.08867      .   S
    C172   C170      1.40292      .   S
    C160   C159      1.40297      .   S
    O202   C123      1.29308      .   S
    O193   C110      1.29102      .   S
    O228   Zn14      1.93629      .   S
    O209   Zn6       1.93707  1_565   S
    H45    C121      1.08704      .   S
    C164   H72       1.08893      .   S
    C164   C165      1.39176      .   S
    H43    C117      1.08869      .   S
    C168   H74       1.08861      .   S
    C168   C169      1.38980      .   S
    O220   H64       0.97503      .   S
    O220   Zn14      2.04532  1_545   S
    C170   C169      1.40321      .   S
    C170   C171      1.49469      .   S
    C159   C165      1.40461      .   S
    C159   C158      1.49946      .   S
    C110   O199      1.26517      .   S
    C110   C111      1.49945      .   S
    C123   O197      1.26227      .   S
    C123   C122      1.49469      .   S
    O227   Zn17      2.13759      .   S
    O227   C171      1.26225      .   S
    O229   Zn17      2.15161      .   S
    O229   C158      1.26519      .   S
    C165   H73       1.08869      .   S
    Zn14   O179      1.93658  1_565   S
    C169   H75       1.08774      .   S
    Zn17   O199      2.15170      .   S
    Zn17   O197      2.13764      .   S
    C121   C122      1.40373      .   S
    C121   C120      1.39008      .   S
    Zn6    O190      2.04557  1_545   S
    Zn6    O198      1.93632      .   S
    C117   C111      1.40455      .   S
    C117   C116      1.39174      .   S
    C171   O232      1.29309      .   S
    C158   O223      1.29102      .   S
    H44    C120      1.08863      .   S
    H34    O190      0.97477      .   S
    C111   C112      1.40298      .   S
    C122   C124      1.40293      .   S
    H42    C116      1.08894      .   S
    C120   C119      1.40277      .   S
    C116   C114      1.40305      .   S
    O179   C78       1.29576      .   S
    O198   C107      1.29078      .   S
    O223   Zn13      1.93973      .   S
    O232   Zn15      1.92947      .   S
    H24    C85       1.08826      .   S
    H37    C105      1.08699      .   S
    C112   H40       1.08868      .   S
    C112   C113      1.39115      .   S
    C124   H46       1.08854      .   S
    C124   C125      1.39073      .   S
    O221   H65       0.97465      .   S
    O221   Zn15      2.03901      .   S
    C114   C113      1.40444      .   S
    C114   C115      1.49995      .   S
    C119   C125      1.40381      .   S
    C119   C118      1.49496      .   S
    C78    O185      1.26050      .   S
    C78    C79       1.49837      .   S
    C107   O195      1.26385      .   S
    C107   C106      1.49909      .   S
    O201   Zn4       2.13160      .   S
    O201   C118      1.26330      .   S
    O196   Zn4       2.14326  1_655   S
    O196   C115      1.26488      .   S
    C113   H41       1.08856      .   S
    C125   H47       1.08847      .   S
    C85    C79       1.40233      .   S
    C85    C84       1.39137      .   S
    Zn4    O185      2.13230  1_465   S
    Zn4    O195      2.13759  1_565   S
    Zn15   O188      1.93049      .   S
    Zn13   O174      2.03654      .   S
    Zn13   O177      1.94008      .   S
    C105   C106      1.40487      .   S
    C105   C104      1.39188      .   S
    C115   O192      1.29139      .   S
    C118   O203      1.29171      .   S
    H23    C84       1.08840      .   S
    H36    C104      1.08820      .   S
    H18    O174      0.97501      .   S
    C79    C80       1.40493      .   S
    C106   C108      1.40338      .   S
    C84    C82       1.40336      .   S
    C104   C103      1.40339      .   S
    O188   C94       1.29183      .   S
    O177   C91       1.29150      .   S
    O192   Zn9       1.94009      .   S
    O203   Zn11      1.93022      .   S
    H32    C101      1.08860      .   S
    C80    H21       1.08810      .   S
    C80    C81       1.39133      .   S
    H26    C89       1.08853      .   S
    C108   H38       1.08850      .   S
    C108   C109      1.39138      .   S
    O189   H33       0.97496      .   S
    O189   Zn9       2.02913  1_445   S
    C82    C81       1.40391      .   S
    C82    C83       1.49910      .   S
    C103   C109      1.40331      .   S
    C103   C102      1.49831      .   S
    C94    O186      1.26317      .   S
    C94    C95       1.49492      .   S
    C91    O181      1.26477      .   S
    C91    C90       1.49988      .   S
    O180   Zn0       2.13764      .   S
    O180   C83       1.26396      .   S
    O200   Zn0       2.13341      .   S
    O200   C102      1.25940      .   S
    C81    H22       1.08749      .   S
    Zn9    O208      1.93953  1_565   S
    Zn11   O206      2.03801      .   S
    Zn11   O217      1.92947  1_565   S
    Zn0    O181      2.14349      .   S
    Zn0    O186      2.13138      .   S
    C109   H39       1.08827      .   S
    C101   C95       1.40380      .   S
    C101   C100      1.39072      .   S
    C89    C90       1.40442      .   S
    C89    C88       1.39117      .   S
    C83    O183      1.29072      .   S
    C102   O194      1.29626      .   S
    H31    C100      1.08844      .   S
    H50    O206      0.97483      .   S
    C95    C96       1.40289      .   S
    C90    C92       1.40306      .   S
    H25    C88       1.08865      .   S
    C100   C98       1.40287      .   S
    C88    C87       1.40299      .   S
    O217   C147      1.29212      .   S
    O208   C134      1.27950      .   S
    O183   Zn2       1.93638      .   S
    C92    H27       1.08895      .   S
    C92    C93       1.39180      .   S
    C96    H29       1.08854      .   S
    C96    C97       1.38978      .   S
    O175   H19       0.97501      .   S
    O175   Zn2       2.04587      .   S
    C98    C97       1.40323      .   S
    C87    C93       1.40461      .   S
    O182   Zn16      2.13735      .   S
    O184   Zn16      2.15093  1_455   S
    O174   Zn0       2.08330      .   S
    O174   Zn15      2.03673      .   S
    O175   Zn0       2.07703      .   S
    O175   Zn10      2.05034  1_556   S
    O176   Zn1       2.04742  1_655   S
    O176   Zn16      2.06907  1_544   S
    O189   Zn4       2.08328  1_545   S
    O189   Zn11      2.04383  1_545   S
    O190   Zn4       2.07719      .   S
    O190   Zn14      2.05012  1_455   S
    O191   Zn5       2.04775      .   S
    O191   Zn17      2.06907      .   S
    O204   Zn7       2.03673      .   S
    O204   Zn8       2.08313      .   S
    O205   Zn2       2.04983  1_554   S
    O205   Zn8       2.07771      .   S
    O206   Zn9       2.04745  1_455   S
    O206   Zn16      2.06873  1_455   S
    O219   Zn1       2.03648  1_665   S
    O219   Zn12      2.08330  1_565   S
    O220   Zn6       2.05043  1_655   S
    O220   Zn12      2.07719      .   S
    O221   Zn13      2.04858      .   S
    O221   Zn17      2.06755      .   S
