# CIF file generated by openbabel 2.4.90, see http://openbabel.sf.net
data_I
_chemical_name_common ''
_cell_length_a 7.639
_cell_length_b 12.824
_cell_length_c 12.929
_cell_angle_alpha 80.642
_cell_angle_beta 85.374
_cell_angle_gamma 85.506
_space_group_name_H-M_alt 'P 1'
_space_group_name_Hall 'P 1'
loop_
    _symmetry_equiv_pos_as_xyz
    x,y,z
loop_
    _atom_site_label
    _atom_site_type_symbol
    _atom_site_fract_x
    _atom_site_fract_y
    _atom_site_fract_z
    _atom_site_occupancy
    H0      H    0.49042   0.36947   0.85903   1.000
    H1      H    0.41026   0.30420   0.76186   1.000
    H2      H    0.49695   0.11960   0.99645   1.000
    H3      H    0.00977   0.14065   0.63115   1.000
    H4      H    0.08969   0.23988   0.69437   1.000
    H5      H    0.00603   0.00295   0.87839   1.000
    H6      H    0.50959   0.63051   0.14101   1.000
    H7      H    0.58974   0.69579   0.23817   1.000
    H8      H    0.50306   0.88038   0.00358   1.000
    H9      H    0.99023   0.85934   0.36888   1.000
    H10     H    0.91032   0.76011   0.30566   1.000
    H11     H    0.99397   0.99703   0.12164   1.000
    H12     H    0.75205   0.98652   0.01155   1.000
    H13     H    0.75024   0.28607   0.71514   1.000
    H14     H    0.24795   0.01347   0.98848   1.000
    H15     H    0.24976   0.71391   0.28489   1.000
    C16     C    0.45268   0.29256   0.84289   1.000
    C17     C    0.60614   0.21077   0.85431   1.000
    C18     C    0.60805   0.12662   0.93820   1.000
    C19     C    0.04803   0.15791   0.70690   1.000
    C20     C    0.89543   0.14608   0.78883   1.000
    C21     C    0.89463   0.06133   0.87215   1.000
    C22     C    0.54732   0.70743   0.15714   1.000
    C23     C    0.39386   0.78921   0.14572   1.000
    C24     C    0.39195   0.87337   0.06184   1.000
    C25     C    0.95197   0.84207   0.29313   1.000
    C26     C    0.10457   0.85391   0.21120   1.000
    C27     C    0.10537   0.93866   0.12788   1.000
    C28     C    0.75162   0.05230   0.94643   1.000
    C29     C    0.75062   0.22013   0.78041   1.000
    C30     C    0.24838   0.94768   0.05360   1.000
    C31     C    0.24938   0.77986   0.21962   1.000
    O32     O    0.31126   0.25592   0.91594   1.000
    O33     O    0.19033   0.08519   0.74303   1.000
    O34     O    0.68874   0.74407   0.08409   1.000
    O35     O    0.80966   0.91479   0.25700   1.000
loop_
    _geom_bond_atom_site_label_1
    _geom_bond_atom_site_label_2
    _geom_bond_distance
    _geom_bond_site_symmetry_2
    _ccdc_geom_bond_type
    H8     C24       1.08742      .   S
    H12    C28       1.09065  1_564   S
    C30    C24       1.39443      .   S
    C30    C27       1.39420      .   S
    C30    H14       1.09066  1_564   S
    C24    C23       1.40022      .   S
    O34    C22       1.43198      .   S
    H11    C27       1.08752  1_655   S
    C27    C26       1.40027      .   S
    H6     C22       1.10480      .   S
    C23    C22       1.51025      .   S
    C23    C31       1.39959      .   S
    C22    H7        1.10503      .   S
    C26    C31       1.39951      .   S
    C26    C25       1.51008  1_455   S
    C31    H15       1.09318      .   S
    O35    C25       1.43205      .   S
    C25    H10       1.10504      .   S
    C25    H9        1.10478      .   S
    H3     C19       1.10479      .   S
    H4     C19       1.10505      .   S
    C19    O33       1.43206      .   S
    C19    C20       1.51006  1_455   S
    H13    C29       1.09318      .   S
    H1     C16       1.10503      .   S
    C29    C20       1.39951      .   S
    C29    C17       1.39958      .   S
    C20    C21       1.40027      .   S
    C16    C17       1.51026      .   S
    C16    H0        1.10479      .   S
    C16    O32       1.43199      .   S
    C17    C18       1.40022      .   S
    C21    H5        1.08751  1_655   S
    C21    C28       1.39422      .   S
    C18    C28       1.39443      .   S
    C18    H2        1.08743      .   S
