# CIF file generated by openbabel 2.4.90, see http://openbabel.sf.net
data_I
_chemical_name_common ''
_cell_length_a 7.639
_cell_length_b 12.824
_cell_length_c 12.929
_cell_angle_alpha 80.642
_cell_angle_beta 85.374
_cell_angle_gamma 85.506
_space_group_name_H-M_alt 'P 1'
_space_group_name_Hall 'P 1'
loop_
    _symmetry_equiv_pos_as_xyz
    x,y,z
loop_
    _atom_site_label
    _atom_site_type_symbol
    _atom_site_fract_x
    _atom_site_fract_y
    _atom_site_fract_z
    _atom_site_occupancy
    H0      H    0.69547   0.46413   0.95148   1.000
    H1      H    0.21433   0.44827   0.79623   1.000
    H2      H    0.06635   0.20243   0.05075   1.000
    H3      H    0.80487   0.05068   0.53428   1.000
    H4      H    0.28483   0.20464   0.55082   1.000
    H5      H    0.43670   0.95129   0.79637   1.000
    H6      H    0.30453   0.53584   0.04855   1.000
    H7      H    0.78567   0.55172   0.20380   1.000
    H8      H    0.93365   0.79755   0.94928   1.000
    H9      H    0.19513   0.94930   0.46576   1.000
    H10     H    0.71517   0.79534   0.44921   1.000
    H11     H    0.56329   0.04869   0.20366   1.000
    C12     C    0.86663   0.32874   0.01084   1.000
    C13     C    0.82388   0.42242   0.94266   1.000
    C14     C    0.94945   0.46401   0.86573   1.000
    C15     C    0.11785   0.41230   0.85507   1.000
    C16     C    0.15683   0.31648   0.92049   1.000
    C17     C    0.03158   0.27550   0.00000   1.000
    C18     C    0.63520   0.99127   0.66989   1.000
    C19     C    0.67673   0.05931   0.57619   1.000
    C20     C    0.55017   0.13576   0.53477   1.000
    C21     C    0.38206   0.14618   0.58665   1.000
    C22     C    0.34432   0.08091   0.68238   1.000
    C23     C    0.47056   0.00000   0.72325   1.000
    C24     C    0.13337   0.67124   0.98919   1.000
    C25     C    0.17612   0.57756   0.05738   1.000
    C26     C    0.05055   0.53597   0.13430   1.000
    C27     C    0.88215   0.58769   0.14496   1.000
    C28     C    0.84317   0.68350   0.07954   1.000
    C29     C    0.96842   0.72448   0.00110   1.000
    C30     C    0.36480   0.00871   0.33014   1.000
    C31     C    0.32327   0.94068   0.42385   1.000
    C32     C    0.44983   0.86422   0.46526   1.000
    C33     C    0.61793   0.85380   0.41338   1.000
    C34     C    0.65567   0.91907   0.31765   1.000
    C35     C    0.52944   0.99706   0.27678   1.000
loop_
    _geom_bond_atom_site_label_1
    _geom_bond_atom_site_label_2
    _geom_bond_distance
    _geom_bond_site_symmetry_2
    _ccdc_geom_bond_type
    C17    C12       1.39333  1_455   S
    C17    H2        1.08092      .   S
    C17    C16       1.41165  1_554   S
    C29    C28       1.40325      .   S
    C29    H8        1.08768  1_554   S
    C29    C24       1.39487  1_654   S
    C12    C13       1.40277  1_554   S
    H6     C25       1.08668      .   S
    C25    C26       1.39552      .   S
    C25    C24       1.40277  1_554   S
    C28    C27       1.39968      .   S
    C26    C27       1.40754  1_455   S
    C27    H7        1.08783      .   S
    H11    C35       1.08751  1_545   S
    C35    C34       1.40307      .   S
    C35    C30       1.39438  1_565   S
    C34    C33       1.39967      .   S
    C30    C31       1.40257  1_545   S
    C33    H10       1.08788      .   S
    C33    C32       1.40715      .   S
    C31    C32       1.39535      .   S
    C31    H9        1.08670      .   S
    H3     C19       1.08670      .   S
    C20    C19       1.39536      .   S
    C20    C21       1.40716      .   S
    H4     C21       1.08789      .   S
    C19    C18       1.40257  1_545   S
    C21    C22       1.39966      .   S
    C18    C23       1.39050  1_565   S
    C22    C23       1.42578      .   S
    C23    H5        1.06981  1_545   S
    H1     C15       1.08781      .   S
    C15    C14       1.40753  1_455   S
    C15    C16       1.39969      .   S
    C14    C13       1.39552      .   S
    C13    H0        1.08668      .   S
