# CIF file generated by openbabel 2.4.90, see http://openbabel.sf.net
data_I
_chemical_name_common ''
_cell_length_a 7.639
_cell_length_b 12.824
_cell_length_c 12.929
_cell_angle_alpha 80.642
_cell_angle_beta 85.374
_cell_angle_gamma 85.506
_space_group_name_H-M_alt 'P 1'
_space_group_name_Hall 'P 1'
loop_
    _symmetry_equiv_pos_as_xyz
    x,y,z
loop_
    _atom_site_label
    _atom_site_type_symbol
    _atom_site_fract_x
    _atom_site_fract_y
    _atom_site_fract_z
    _atom_site_occupancy
    Zn0     Zn   0.06784   0.77377   0.71581   1.000
    Zn1     Zn   0.56972   0.71593   0.77323   1.000
    Zn2     Zn   0.93216   0.22621   0.28422   1.000
    Zn3     Zn   0.43027   0.28405   0.22680   1.000
    C4      C    0.73918   0.28747   0.09830   1.000
    C5      C    0.90277   0.56717   0.79776   1.000
    C6      C    0.76348   0.90410   0.71094   1.000
    C7      C    0.59572   0.20335   0.43163   1.000
    C8      C    0.26081   0.71251   0.90173   1.000
    C9      C    0.09723   0.43281   0.20226   1.000
    C10     C    0.23652   0.09588   0.28910   1.000
    C11     C    0.40428   0.79663   0.56840   1.000
    O12     O    0.58411   0.33323   0.10188   1.000
    O13     O    0.78533   0.20894   0.16757   1.000
    O14     O    0.74000   0.59071   0.78721   1.000
    O15     O    0.03017   0.62219   0.75556   1.000
    O16     O    0.91898   0.90142   0.66586   1.000
    O17     O    0.71792   0.83368   0.78865   1.000
    O18     O    0.75828   0.21435   0.40748   1.000
    O19     O    0.46747   0.24456   0.37737   1.000
    O20     O    0.41589   0.66675   0.89815   1.000
    O21     O    0.21466   0.79104   0.83246   1.000
    O22     O    0.25999   0.40926   0.21281   1.000
    O23     O    0.96983   0.37779   0.24447   1.000
    O24     O    0.08102   0.09856   0.33417   1.000
    O25     O    0.28208   0.16630   0.21138   1.000
    O26     O    0.24172   0.78563   0.59255   1.000
    O27     O    0.53253   0.75542   0.62266   1.000
loop_
    _geom_bond_atom_site_label_1
    _geom_bond_atom_site_label_2
    _geom_bond_distance
    _geom_bond_site_symmetry_2
    _ccdc_geom_bond_type
    C4     O12       1.28096      .   S
    C4     O13       1.28153      .   S
    O12    Zn3       1.96625      .   S
    O13    Zn2       2.00048      .   S
    C9     O22       1.26921      .   S
    C9     O23       1.28041  1_455   S
    O25    Zn3       2.00085      .   S
    O25    C10       1.28219      .   S
    O22    Zn3       1.97976      .   S
    Zn3    O19       1.96802      .   S
    O23    Zn2       1.96574      .   S
    Zn2    O24       1.96800  1_655   S
    Zn2    O18       1.98462      .   S
    C10    O24       1.28075      .   S
    O19    C7        1.28076      .   S
    O18    C7        1.26883      .   S
    C11    O26       1.26884      .   S
    C11    O27       1.28077      .   S
    O26    Zn0       1.98462      .   S
    O27    Zn1       1.96800      .   S
    O16    C6        1.28074      .   S
    O16    Zn0       1.96799  1_655   S
    C6     O17       1.28219      .   S
    Zn0    O15       1.96574      .   S
    Zn0    O21       2.00050      .   S
    O15    C5        1.28040  1_455   S
    Zn1    O14       1.97976      .   S
    Zn1    O17       2.00087      .   S
    Zn1    O20       1.96623      .   S
    O14    C5        1.26921      .   S
    O21    C8        1.28154      .   S
    O20    C8        1.28098      .   S
