# CIF file generated by openbabel 2.4.90, see http://openbabel.sf.net
data_I
_chemical_name_common ''
_cell_length_a 7.639
_cell_length_b 12.824
_cell_length_c 12.929
_cell_angle_alpha 80.642
_cell_angle_beta 85.374
_cell_angle_gamma 85.506
_space_group_name_H-M_alt 'P 1'
_space_group_name_Hall 'P 1'
loop_
    _symmetry_equiv_pos_as_xyz
    x,y,z
loop_
    _atom_site_label
    _atom_site_type_symbol
    _atom_site_fract_x
    _atom_site_fract_y
    _atom_site_fract_z
    _atom_site_occupancy
    C0      C    0.73918   0.28747   0.09830   1.000
    C1      C    0.90277   0.56717   0.79776   1.000
    C2      C    0.76348   0.90410   0.71094   1.000
    C3      C    0.59572   0.20335   0.43163   1.000
    C4      C    0.26081   0.71251   0.90173   1.000
    C5      C    0.09723   0.43281   0.20226   1.000
    C6      C    0.23652   0.09588   0.28910   1.000
    C7      C    0.40428   0.79663   0.56840   1.000
