# CIF file generated by openbabel 2.4.90, see http://openbabel.sf.net
data_I
_chemical_name_common ''
_cell_length_a 7.639
_cell_length_b 12.824
_cell_length_c 12.929
_cell_angle_alpha 80.642
_cell_angle_beta 85.374
_cell_angle_gamma 85.506
_space_group_name_H-M_alt 'P 1'
_space_group_name_Hall 'P 1'
loop_
    _symmetry_equiv_pos_as_xyz
    x,y,z
loop_
    _atom_site_label
    _atom_site_type_symbol
    _atom_site_fract_x
    _atom_site_fract_y
    _atom_site_fract_z
    _atom_site_occupancy
    Zr0     Zr   0.43027   0.28405   0.22680   1.000
    Zr1     Zr   0.06784   0.77377   0.71581   1.000
    Zr2     Zr   0.56972   0.71593   0.77323   1.000
    Zr3     Zr   0.93216   0.22621   0.28422   1.000
    N4      N    0.00863   0.62951   0.06757   1.000
    N5      N    0.49050   0.93076   0.37174   1.000
    O6      O    0.43040   0.87697   0.24987   1.000
    N7      N    0.99137   0.37048   0.93258   1.000
    N8      N    0.50949   0.06889   0.62829   1.000
    O9      O    0.56960   0.12293   0.75017   1.000
    C10     C    0.89098   0.59336   0.78018   1.000
    O11     O    0.96999   0.64567   0.75793   1.000
    O12     O    0.92486   0.51820   0.83117   1.000
    O13     O    0.77292   0.62334   0.78020   1.000
    C14     C    0.80013   0.87973   0.72182   1.000
    O15     O    0.70227   0.94401   0.69058   1.000
    O16     O    0.72197   0.82727   0.75138   1.000
    O17     O    0.89677   0.85866   0.70633   1.000
    C18     C    0.29712   0.72343   0.87745   1.000
    O19     O    0.21919   0.75292   0.82579   1.000
    O20     O    0.39496   0.70739   0.85657   1.000
    O21     O    0.19999   0.69206   0.94198   1.000
    C22     C    0.39284   0.77923   0.59454   1.000
    O23     O    0.27381   0.77946   0.62436   1.000
    O24     O    0.42581   0.82991   0.51941   1.000
    O25     O    0.47198   0.75745   0.64624   1.000
    C26     C    0.10902   0.40662   0.21985   1.000
    O27     O    0.07514   0.48178   0.16889   1.000
    O28     O    0.03000   0.35431   0.24210   1.000
    O29     O    0.22707   0.37664   0.21983   1.000
    C30     C    0.19987   0.12025   0.27822   1.000
    O31     O    0.27802   0.17271   0.24865   1.000
    O32     O    0.10323   0.14132   0.29371   1.000
    O33     O    0.29772   0.05589   0.30945   1.000
    C34     C    0.60716   0.22075   0.40550   1.000
    O35     O    0.52802   0.24253   0.35379   1.000
    O36     O    0.57419   0.16999   0.48062   1.000
    O37     O    0.72619   0.22052   0.37567   1.000
    C38     C    0.70288   0.27654   0.12258   1.000
    O39     O    0.60503   0.29259   0.14346   1.000
    O40     O    0.78081   0.24706   0.17424   1.000
    O41     O    0.80001   0.30792   0.05808   1.000
loop_
    _geom_bond_atom_site_label_1
    _geom_bond_atom_site_label_2
    _geom_bond_distance
    _geom_bond_site_symmetry_2
    _ccdc_geom_bond_type
    N4     O6        5.59164      .   S
    N5     O6        1.92083      .   S
    N7     O9        5.59320      .   S
    N8     O9        1.92243      .   S
    C10    O11       0.93259      .   S
    Zr1    O11       1.84108  1_455   S
    C10    O12       1.10113      .   S
    N7     O12       2.17136      .   S
    C10    O13       0.95227      .   S
    Zr2    O13       1.87786      .   S
    C14    O15       1.11588      .   S
    N8     O15       2.18732  1_545   S
    C14    O16       0.94745      .   S
    Zr2    O16       1.88336      .   S
    C14    O17       0.78778      .   S
    Zr1    O17       1.63326  1_455   S
    C18    O19       0.94348      .   S
    Zr1    O19       1.87700      .   S
    C18    O20       0.79703      .   S
    Zr2    O20       1.64551      .   S
    C18    O21       1.11637      .   S
    N4     O21       2.18959  1_554   S
    C22    O23       0.95858      .   S
    Zr1    O23       1.88917      .   S
    C22    O24       1.10008      .   S
    N5     O24       2.16956      .   S
    C22    O25       0.93187      .   S
    Zr2    O25       1.84059      .   S
    C26    O27       1.10095      .   S
    N4     O27       2.17080      .   S
    C26    O28       0.93259      .   S
    Zr3    O28       1.84108  1_655   S
    C26    O29       0.95227      .   S
    Zr0    O29       1.87786      .   S
    C30    O31       0.94745      .   S
    Zr0    O31       1.88335      .   S
    C30    O32       0.78778      .   S
    Zr3    O32       1.63325  1_655   S
    C30    O33       1.11653      .   S
    N5     O33       2.18925  1_565   S
    C34    O35       0.93187      .   S
    Zr0    O35       1.84061      .   S
    C34    O36       1.10056      .   S
    N8     O36       2.17103      .   S
    C34    O37       0.95857      .   S
    Zr3    O37       1.88916      .   S
    C38    O39       0.79703      .   S
    Zr0    O39       1.64552      .   S
    C38    O40       0.94348      .   S
    Zr3    O40       1.87699      .   S
    C38    O41       1.11612      .   S
    N7     O41       2.18886  1_556   S
