# CIF file generated by openbabel 2.4.90, see http://openbabel.sf.net
data_I
_chemical_name_common ''
_cell_length_a 13.248
_cell_length_b 14.544
_cell_length_c 18.124
_cell_angle_alpha 89.98
_cell_angle_beta 89.858
_cell_angle_gamma 89.997
_space_group_name_H-M_alt 'P 1'
_space_group_name_Hall 'P 1'
loop_
    _symmetry_equiv_pos_as_xyz
    x,y,z
loop_
    _atom_site_label
    _atom_site_type_symbol
    _atom_site_fract_x
    _atom_site_fract_y
    _atom_site_fract_z
    _atom_site_occupancy
    Cd0     Cd   0.63322   0.55093   0.66804   1.000
    Cd1     Cd   0.63330   0.05069   0.83246   1.000
    Cd2     Cd   0.86710   0.05085   0.16738   1.000
    Cd3     Cd   0.36667   0.94934   0.16754   1.000
    Cd4     Cd   0.13287   0.94919   0.83262   1.000
    Cd5     Cd   0.13354   0.44910   0.66750   1.000
    Cd6     Cd   0.36676   0.44910   0.33196   1.000
    Cd7     Cd   0.86643   0.55093   0.33250   1.000
    C8      C    0.97355   0.88999   0.20241   1.000
    C9      C    0.20051   0.33985   0.30918   1.000
    C10     C    0.52659   0.88985   0.79779   1.000
    C11     C    0.29950   0.33966   0.69091   1.000
    C12     C    0.52649   0.38988   0.70295   1.000
    O13     O    0.21810   0.90697   0.23410   1.000
    O14     O    0.38618   0.58933   0.27162   1.000
    O15     O    0.52002   0.06135   0.15531   1.000
    O16     O    0.75517   0.17965   0.13494   1.000
    C17     C    0.29928   0.84047   0.80961   1.000
    C18     C    0.97340   0.38997   0.29762   1.000
    C19     C    0.20054   0.83994   0.19081   1.000
    C20     C    0.47348   0.61015   0.29705   1.000
    C21     C    0.70069   0.15956   0.19039   1.000
    C22     C    0.02657   0.61006   0.70239   1.000
    C23     C    0.79943   0.16009   0.80919   1.000
    C24     C    0.02642   0.11004   0.79759   1.000
    C25     C    0.79946   0.66018   0.69083   1.000
    C26     C    0.47338   0.11018   0.20221   1.000
    C27     C    0.70047   0.66037   0.30909   1.000
    O28     O    0.88603   0.91078   0.22781   1.000
    O29     O    0.02063   0.43920   0.34377   1.000
    O30     O    0.25330   0.32056   0.36543   1.000
    O31     O    0.21816   0.40691   0.26583   1.000
    O32     O    0.61373   0.91070   0.77177   1.000
    O33     O    0.47951   0.43892   0.65649   1.000
    O34     O    0.24818   0.32059   0.63397   1.000
    O35     O    0.28046   0.40636   0.73433   1.000
    O36     O    0.61379   0.41070   0.72838   1.000
    O37     O    0.47995   0.93868   0.84469   1.000
    O38     O    0.24480   0.82038   0.86506   1.000
    O39     O    0.28353   0.90878   0.76723   1.000
    O40     O    0.88598   0.41066   0.27226   1.000
    O41     O    0.02103   0.93909   0.15610   1.000
    O42     O    0.25345   0.82061   0.13446   1.000
    O43     O    0.71644   0.09125   0.23277   1.000
    O44     O    0.11399   0.58937   0.72774   1.000
    O45     O    0.97894   0.06094   0.84391   1.000
    O46     O    0.74652   0.17942   0.86554   1.000
    O47     O    0.78187   0.09306   0.76590   1.000
    O48     O    0.11395   0.08925   0.77220   1.000
    O49     O    0.97934   0.56083   0.65623   1.000
    O50     O    0.74667   0.67948   0.63457   1.000
    O51     O    0.78181   0.59312   0.73417   1.000
    O52     O    0.38624   0.08933   0.22823   1.000
    O53     O    0.52046   0.56111   0.34351   1.000
    O54     O    0.75179   0.67944   0.36603   1.000
    O55     O    0.71951   0.59367   0.26568   1.000
    Ts56    Ts   0.59475   0.58349   0.68682   1.000
    Ts57    Ts   0.65534   0.52632   0.63116   1.000
    Ts58    Ts   0.65548   0.02610   0.86929   1.000
    Ts59    Ts   0.59495   0.08329   0.81372   1.000
    Ts60    Ts   0.84483   0.02625   0.13054   1.000
    Ts61    Ts   0.90527   0.08340   0.18643   1.000
    Ts62    Ts   0.40502   0.91674   0.18629   1.000
    Ts63    Ts   0.34449   0.97393   0.13071   1.000
    Ts64    Ts   0.09470   0.91663   0.81357   1.000
    Ts65    Ts   0.15514   0.97378   0.86946   1.000
    Ts66    Ts   0.15573   0.47369   0.63065   1.000
    Ts67    Ts   0.09523   0.41650   0.68635   1.000
    Ts68    Ts   0.34463   0.47372   0.36885   1.000
    Ts69    Ts   0.40522   0.41654   0.31318   1.000
    Ts70    Ts   0.90474   0.58353   0.31365   1.000
    Ts71    Ts   0.84425   0.52635   0.36935   1.000
    Og72    Og   0.98817   0.85979   0.21034   1.000
    Og73    Og   0.17315   0.31782   0.30168   1.000
    Og74    Og   0.51181   0.85970   0.78989   1.000
    Og75    Og   0.32682   0.31769   0.69858   1.000
    Og76    Og   0.51179   0.35970   0.71089   1.000
    Og77    Og   0.32657   0.81834   0.80207   1.000
    Og78    Og   0.98809   0.35976   0.28973   1.000
    Og79    Og   0.17318   0.81791   0.19837   1.000
    Og80    Og   0.48818   0.64033   0.28911   1.000
    Og81    Og   0.67340   0.18169   0.19793   1.000
    Og82    Og   0.01188   0.64028   0.71027   1.000
    Og83    Og   0.82679   0.18212   0.80163   1.000
    Og84    Og   0.01180   0.14024   0.78966   1.000
    Og85    Og   0.82682   0.68221   0.69832   1.000
    Og86    Og   0.48816   0.14033   0.21012   1.000
    Og87    Og   0.67315   0.68234   0.30142   1.000
loop_
    _geom_bond_atom_site_label_1
    _geom_bond_atom_site_label_2
    _geom_bond_distance
    _geom_bond_site_symmetry_2
    _ccdc_geom_bond_type
    O42    Cd3       2.47402      .   S
    O42    C19       1.26883      .   S
    O16    Cd2       2.46114      .   S
    O16    C21       1.26988      .   S
    O15    C26       1.26756      .   S
    O41    C8        1.26776  1_455   S
    Cd2    O28       2.32629  1_545   S
    Cd2    O43       2.39207      .   S
    Cd3    O52       2.32921  1_565   S
    Cd3    O13       2.38674      .   S
    C21    O43       1.27314      .   S
    C19    O13       1.27350      .   S
    C26    O52       1.28226      .   S
    C8     O28       1.28267      .   S
    O55    C27       1.27414      .   S
    O55    Cd7       2.37749      .   S
    O31    C9        1.27345      .   S
    O31    Cd6       2.38762      .   S
    O14    C20       1.28240      .   S
    O14    Cd6       2.32773      .   S
    O40    C18       1.28280      .   S
    O40    Cd7       2.32832      .   S
    C20    O53       1.26765      .   S
    C18    O29       1.26765  1_655   S
    C27    O54       1.26802      .   S
    C9     O30       1.26906      .   S
    Cd6    O30       2.47334      .   S
    Cd7    O54       2.48299      .   S
    O34    Cd5       2.48299      .   S
    O34    C11       1.26803      .   S
    O50    Cd0       2.47336      .   S
    O50    C25       1.26906      .   S
    O49    C22       1.26766  1_655   S
    O33    C12       1.26766      .   S
    Cd5    O44       2.32831      .   S
    Cd5    O35       2.37747      .   S
    Cd0    O36       2.32771      .   S
    Cd0    O51       2.38759      .   S
    C25    O51       1.27345      .   S
    C11    O35       1.27414      .   S
    C22    O44       1.28279      .   S
    C12    O36       1.28242      .   S
    O47    C23       1.27350      .   S
    O47    Cd1       2.38674      .   S
    O39    C17       1.27314      .   S
    O39    Cd4       2.39205      .   S
    O32    C10       1.28226      .   S
    O32    Cd1       2.32922  1_565   S
    O48    C24       1.28269      .   S
    O48    Cd4       2.32630  1_545   S
    C24    O45       1.26775  1_455   S
    C10    O37       1.26754      .   S
    C23    O46       1.26884      .   S
    C17    O38       1.26988      .   S
    Cd1    O46       2.47401      .   S
    Cd4    O38       2.46113      .   S
    Cd0    Ts56      0.77400      .   S
    Cd0    Ts57      0.81248      .   S
    Cd1    Ts58      0.81283      .   S
    Cd1    Ts59      0.77398      .   S
    Cd2    Ts60      0.81350      .   S
    Cd2    Ts61      0.77473      .   S
    Cd3    Ts62      0.77398      .   S
    Cd3    Ts63      0.81283      .   S
    Cd4    Ts64      0.77473      .   S
    Cd4    Ts65      0.81350      .   S
    Cd5    Ts66      0.81201      .   S
    Cd5    Ts67      0.77338      .   S
    Cd6    Ts68      0.81248      .   S
    Cd6    Ts69      0.77400      .   S
    Cd7    Ts70      0.77338      .   S
    Cd7    Ts71      0.81201      .   S
    C8     Og72      0.50113      .   S
    C9     Og73      0.50269      .   S
    C10    Og74      0.50128      .   S
    C11    Og75      0.50267      .   S
    C12    Og76      0.50119      .   S
    C17    Og77      0.50276      .   S
    C18    Og78      0.50124      .   S
    C19    Og79      0.50256      .   S
    C20    Og80      0.50120      .   S
    C21    Og81      0.50276      .   S
    C22    Og82      0.50124      .   S
    C23    Og83      0.50257      .   S
    C24    Og84      0.50114      .   S
    C25    Og85      0.50270      .   S
    C26    Og86      0.50127      .   S
    C27    Og87      0.50267      .   S
