# CIF file generated by openbabel 2.4.90, see http://openbabel.sf.net
data_I
_chemical_name_common ''
_cell_length_a 13.248
_cell_length_b 14.544
_cell_length_c 18.124
_cell_angle_alpha 89.98
_cell_angle_beta 89.858
_cell_angle_gamma 89.997
_space_group_name_H-M_alt 'P 1'
_space_group_name_Hall 'P 1'
loop_
    _symmetry_equiv_pos_as_xyz
    x,y,z
loop_
    _atom_site_label
    _atom_site_type_symbol
    _atom_site_fract_x
    _atom_site_fract_y
    _atom_site_fract_z
    _atom_site_occupancy
    C0      C    0.97355   0.88999   0.20241   1.000
    C1      C    0.20051   0.33985   0.30918   1.000
    C2      C    0.52659   0.88985   0.79779   1.000
    C3      C    0.29950   0.33966   0.69091   1.000
    C4      C    0.52649   0.38988   0.70295   1.000
    C5      C    0.29928   0.84047   0.80961   1.000
    C6      C    0.97340   0.38997   0.29762   1.000
    C7      C    0.20054   0.83994   0.19081   1.000
    C8      C    0.47348   0.61015   0.29705   1.000
    C9      C    0.70069   0.15956   0.19039   1.000
    C10     C    0.02657   0.61006   0.70239   1.000
    C11     C    0.79943   0.16009   0.80919   1.000
    C12     C    0.02642   0.11004   0.79759   1.000
    C13     C    0.79946   0.66018   0.69083   1.000
    C14     C    0.47338   0.11018   0.20221   1.000
    C15     C    0.70047   0.66037   0.30909   1.000
