# CIF file generated by openbabel 2.4.90, see http://openbabel.sf.net
data_I
_chemical_name_common ''
_cell_length_a 13.248
_cell_length_b 14.544
_cell_length_c 18.124
_cell_angle_alpha 89.98
_cell_angle_beta 89.858
_cell_angle_gamma 89.997
_space_group_name_H-M_alt 'P 1'
_space_group_name_Hall 'P 1'
loop_
    _symmetry_equiv_pos_as_xyz
    x,y,z
loop_
    _atom_site_label
    _atom_site_type_symbol
    _atom_site_fract_x
    _atom_site_fract_y
    _atom_site_fract_z
    _atom_site_occupancy
    N0      N    0.25019   0.58263   0.49974   1.000
    N1      N    0.44524   0.69184   0.75381   1.000
    N2      N    0.94574   0.80841   0.74623   1.000
    N3      N    0.44568   0.19158   0.74689   1.000
    N4      N    0.94587   0.30827   0.75340   1.000
    N5      N    0.24988   0.08276   0.00042   1.000
    N6      N    0.05423   0.19162   0.25377   1.000
    N7      N    0.74977   0.41741   0.50025   1.000
    N8      N    0.75009   0.91727   0.00035   1.000
    N9      N    0.55429   0.80846   0.25312   1.000
    N10     N    0.55473   0.30819   0.24619   1.000
    N11     N    0.05410   0.69176   0.24660   1.000
    Zr12    Zr   0.84546   0.53203   0.31242   1.000
    O13     O    0.91723   0.58891   0.29391   1.000
    O14     O    0.81846   0.49888   0.37822   1.000
    O15     O    0.72617   0.64146   0.29389   1.000
    O16     O    0.93515   0.40008   0.29110   1.000
    Zr17    Zr   0.34555   0.46814   0.31208   1.000
    O18     O    0.22620   0.35868   0.29397   1.000
    O19     O    0.43523   0.60004   0.29060   1.000
    O20     O    0.41757   0.41118   0.29354   1.000
    O21     O    0.31872   0.50123   0.37780   1.000
    Zr22    Zr   0.65442   0.53189   0.68792   1.000
    O23     O    0.77377   0.64135   0.70603   1.000
    O24     O    0.56474   0.39999   0.70940   1.000
    O25     O    0.68125   0.49880   0.62220   1.000
    O26     O    0.58240   0.58885   0.70646   1.000
    Zr27    Zr   0.65448   0.03178   0.81248   1.000
    O28     O    0.77383   0.14125   0.79405   1.000
    O29     O    0.68141   0.99866   0.87825   1.000
    O30     O    0.58261   0.08868   0.79405   1.000
    O31     O    0.56466   0.90001   0.79118   1.000
    Zr32    Zr   0.15426   0.96844   0.81260   1.000
    O33     O    0.27349   0.85900   0.79433   1.000
    O34     O    0.06472   0.10012   0.79108   1.000
    O35     O    0.18117   0.00143   0.87837   1.000
    O36     O    0.08247   0.91141   0.79387   1.000
    Zr37    Zr   0.84572   0.03160   0.18740   1.000
    O38     O    0.91751   0.08862   0.20613   1.000
    O39     O    0.81880   0.99861   0.12182   1.000
    O40     O    0.72648   0.14103   0.20567   1.000
    O41     O    0.93525   0.89991   0.20892   1.000
    Zr42    Zr   0.15451   0.46800   0.68758   1.000
    O43     O    0.06482   0.59995   0.70890   1.000
    O44     O    0.27380   0.35857   0.70612   1.000
    O45     O    0.18151   0.50115   0.62178   1.000
    O46     O    0.08274   0.41112   0.70609   1.000
    Zr47    Zr   0.34549   0.96825   0.18752   1.000
    O48     O    0.43531   0.10002   0.20883   1.000
    O49     O    0.22614   0.85879   0.20595   1.000
    O50     O    0.31856   0.00137   0.12194   1.000
    O51     O    0.41736   0.91135   0.20595   1.000
loop_
    _geom_bond_atom_site_label_1
    _geom_bond_atom_site_label_2
    _geom_bond_distance
    _geom_bond_site_symmetry_2
    _ccdc_geom_bond_type
    Zr12   O13       1.30351      .   S
    N11    O13       2.50047  1_455   S
    Zr12   O14       1.33421      .   S
    N7     O14       2.66693      .   S
    Zr12   O15       2.26830      .   S
    N9     O15       3.41125      .   S
    Zr12   O16       2.28953      .   S
    N6     O16       3.48353  1_455   S
    Zr17   O18       2.26839      .   S
    N6     O18       3.41101      .   S
    Zr17   O19       2.28920      .   S
    N9     O19       3.48302      .   S
    Zr17   O20       1.30696      .   S
    N10    O20       2.50497      .   S
    Zr17   O21       1.33225      .   S
    N0     O21       2.66492      .   S
    Zr22   O23       2.26839      .   S
    N2     O23       3.41101      .   S
    Zr22   O24       2.28920      .   S
    N3     O24       3.48302      .   S
    Zr22   O25       1.33226      .   S
    N7     O25       2.66493      .   S
    Zr22   O26       1.30696      .   S
    N1     O26       2.50497      .   S
    Zr27   O28       2.26782      .   S
    N4     O28       3.41029      .   S
    Zr27   O29       1.33494  1_545   S
    N8     O29       2.67089  1_554   S
    Zr27   O30       1.30556      .   S
    N3     O30       2.50341      .   S
    Zr27   O31       2.28939  1_545   S
    N1     O31       3.48351      .   S
    Zr32   O33       2.26626      .   S
    N1     O33       3.40867      .   S
    Zr32   O34       2.28668  1_565   S
    N4     O34       3.48047  1_655   S
    Zr32   O35       1.33447  1_565   S
    N5     O35       2.67062  1_554   S
    Zr32   O36       1.30750      .   S
    N2     O36       2.50585  1_655   S
    Zr37   O38       1.30750      .   S
    N6     O38       2.50585  1_455   S
    Zr37   O39       1.33138  1_545   S
    N8     O39       2.66204      .   S
    Zr37   O40       2.26626      .   S
    N10    O40       3.40867      .   S
    Zr37   O41       2.28668  1_545   S
    N11    O41       3.48047  1_455   S
    Zr42   O43       2.28953      .   S
    N2     O43       3.48353  1_655   S
    Zr42   O44       2.26830      .   S
    N3     O44       3.41125      .   S
    Zr42   O45       1.33421      .   S
    N0     O45       2.66693      .   S
    Zr42   O46       1.30351      .   S
    N4     O46       2.50047  1_655   S
    Zr47   O48       2.28939  1_565   S
    N10    O48       3.48351      .   S
    Zr47   O49       2.26782      .   S
    N11    O49       3.41029      .   S
    Zr47   O50       1.33185  1_565   S
    N5     O50       2.66232      .   S
    Zr47   O51       1.30555      .   S
    N9     O51       2.50341      .   S
