# CIF file generated by openbabel 2.4.90, see http://openbabel.sf.net
data_I
_chemical_name_common ''
_cell_length_a 18.3
_cell_length_b 17.826
_cell_length_c 15.734
_cell_angle_alpha 90
_cell_angle_beta 90
_cell_angle_gamma 90
_space_group_name_H-M_alt 'P 1'
_space_group_name_Hall 'P 1'
loop_
    _symmetry_equiv_pos_as_xyz
    x,y,z
loop_
    _atom_site_label
    _atom_site_type_symbol
    _atom_site_fract_x
    _atom_site_fract_y
    _atom_site_fract_z
    _atom_site_occupancy
    N0      N    0.27244   0.50001   0.74997   1.000
    N1      N    0.77244   0.50001   0.74998   1.000
    N2      N    0.22756   0.99991   0.74997   1.000
    N3      N    0.72756   0.99991   0.74997   1.000
    N4      N    0.22756   0.50001   0.24998   1.000
    N5      N    0.72757   0.50001   0.24999   1.000
    N6      N    0.27244   0.99991   0.24999   1.000
    N7      N    0.77244   0.99991   0.24999   1.000
    Zr8     Zr   0.00000   0.25001   0.05116   1.000
    O9      O    0.07845   0.17893   0.11129   1.000
    O10     O    0.92155   0.32106   0.11130   1.000
    O11     O    0.93594   0.32164   0.96036   1.000
    O12     O    0.06406   0.17835   0.96036   1.000
    Zr13    Zr   0.50000   0.25001   0.05116   1.000
    O14     O    0.56407   0.17835   0.96036   1.000
    O15     O    0.57845   0.17893   0.11130   1.000
    O16     O    0.42155   0.32106   0.11129   1.000
    O17     O    0.43594   0.32164   0.96036   1.000
    Zr18    Zr   0.00000   0.75002   0.44880   1.000
    O19     O    0.92155   0.67896   0.38868   1.000
    O20     O    0.93594   0.67839   0.53961   1.000
    O21     O    0.07845   0.82105   0.38868   1.000
    O22     O    0.06407   0.82163   0.53960   1.000
    Zr23    Zr   0.50000   0.75002   0.44883   1.000
    O24     O    0.56407   0.82163   0.53962   1.000
    O25     O    0.57845   0.82104   0.38869   1.000
    O26     O    0.42155   0.67897   0.38860   1.000
    O27     O    0.43594   0.67838   0.53961   1.000
    Zr28    Zr   0.00000   0.75002   0.94882   1.000
    O29     O    0.06406   0.67838   0.03962   1.000
    O30     O    0.92155   0.82105   0.88868   1.000
    O31     O    0.93594   0.82163   0.03962   1.000
    O32     O    0.07845   0.67897   0.88868   1.000
    Zr33    Zr   0.50000   0.75002   0.94882   1.000
    O34     O    0.56407   0.67838   0.03962   1.000
    O35     O    0.57845   0.67897   0.88868   1.000
    O36     O    0.43594   0.82163   0.03962   1.000
    O37     O    0.42155   0.82105   0.88868   1.000
    Zr38    Zr   0.00000   0.25001   0.55115   1.000
    O39     O    0.92155   0.17893   0.61128   1.000
    O40     O    0.93594   0.17835   0.46036   1.000
    O41     O    0.06406   0.32164   0.46035   1.000
    O42     O    0.07845   0.32106   0.61128   1.000
    Zr43    Zr   0.50000   0.25001   0.55115   1.000
    O44     O    0.43594   0.17835   0.46036   1.000
    O45     O    0.57845   0.32106   0.61128   1.000
    O46     O    0.42155   0.17893   0.61128   1.000
    O47     O    0.56407   0.32164   0.46035   1.000
loop_
    _geom_bond_atom_site_label_1
    _geom_bond_atom_site_label_2
    _geom_bond_distance
    _geom_bond_site_symmetry_2
    _ccdc_geom_bond_type
    Zr8    O9        2.13579      .   S
    N6     O9        5.24858  1_565   S
    Zr8    O10       2.13556  1_455   S
    N5     O10       5.24786      .   S
    Zr8    O11       2.24637  1_454   S
    N1     O11       5.47896      .   S
    Zr8    O12       2.24661  1_554   S
    N2     O12       5.47972  1_565   S
    Zr13   O14       2.24661  1_554   S
    N3     O14       5.47972  1_565   S
    Zr13   O15       2.13580      .   S
    N7     O15       5.24858  1_565   S
    Zr13   O16       2.13556      .   S
    N4     O16       5.24783      .   S
    Zr13   O17       2.24642  1_554   S
    N0     O17       5.47909      .   S
    Zr18   O19       2.13550  1_455   S
    N5     O19       5.24783      .   S
    Zr18   O20       2.24641  1_455   S
    N1     O20       5.47890      .   S
    Zr18   O21       2.13520      .   S
    N6     O21       5.24694      .   S
    Zr18   O22       2.24609      .   S
    N2     O22       5.47796      .   S
    Zr23   O24       2.24596      .   S
    N3     O24       5.47784      .   S
    Zr23   O25       2.13530      .   S
    N7     O25       5.24704      .   S
    Zr23   O26       2.13623      .   S
    N4     O26       5.24743      .   S
    Zr23   O27       2.24616      .   S
    N0     O27       5.47877      .   S
    Zr28   O29       2.24631  1_556   S
    N4     O29       5.47883      .   S
    Zr28   O30       2.13531  1_455   S
    N3     O30       5.24706      .   S
    Zr28   O31       2.24605  1_456   S
    N7     O31       5.47803      .   S
    Zr28   O32       2.13561      .   S
    N0     O32       5.24800      .   S
    Zr33   O34       2.24635  1_556   S
    N5     O34       5.47890      .   S
    Zr33   O35       2.13559      .   S
    N1     O35       5.24794      .   S
    Zr33   O36       2.24606  1_556   S
    N6     O36       5.47804      .   S
    Zr33   O37       2.13533      .   S
    N2     O37       5.24709      .   S
    Zr38   O39       2.13577  1_455   S
    N3     O39       5.24850  1_565   S
    Zr38   O40       2.24651  1_455   S
    N7     O40       5.47950  1_565   S
    Zr38   O41       2.24633      .   S
    N4     O41       5.47894      .   S
    Zr38   O42       2.13555      .   S
    N0     O42       5.24781      .   S
    Zr43   O44       2.24651      .   S
    N6     O44       5.47952  1_565   S
    Zr43   O45       2.13552      .   S
    N1     O45       5.24796      .   S
    Zr43   O46       2.13578      .   S
    N2     O46       5.24852  1_565   S
    Zr43   O47       2.24631      .   S
    N5     O47       5.47888      .   S
