# CIF file generated by openbabel 2.4.90, see http://openbabel.sf.net
data_I
_chemical_name_common ''
_cell_length_a 18.3
_cell_length_b 17.826
_cell_length_c 15.734
_cell_angle_alpha 90
_cell_angle_beta 90
_cell_angle_gamma 90
_space_group_name_H-M_alt 'P 1'
_space_group_name_Hall 'P 1'
loop_
    _symmetry_equiv_pos_as_xyz
    x,y,z
loop_
    _atom_site_label
    _atom_site_type_symbol
    _atom_site_fract_x
    _atom_site_fract_y
    _atom_site_fract_z
    _atom_site_occupancy
    Zr0     Zr   0.00000   0.25001   0.04646   1.000
    Zr1     Zr   0.50000   0.25001   0.04646   1.000
    Zr2     Zr   0.00000   0.75002   0.45353   1.000
    Zr3     Zr   0.50000   0.75002   0.45353   1.000
    Zr4     Zr   1.00000   0.75002   0.95352   1.000
    Zr5     Zr   0.50000   0.75002   0.95352   1.000
    Zr6     Zr   1.00000   0.25001   0.54645   1.000
    Zr7     Zr   0.50000   0.25001   0.54645   1.000
    Zr8     Zr   0.10019   0.35622   0.05351   1.000
    Zr9     Zr   0.60020   0.35622   0.05351   1.000
    Zr10    Zr   0.39981   0.14379   0.05351   1.000
    Zr11    Zr   0.89981   0.14379   0.05351   1.000
    Zr12    Zr   0.10019   0.64381   0.44648   1.000
    Zr13    Zr   0.60020   0.64381   0.44648   1.000
    Zr14    Zr   0.39981   0.85623   0.44648   1.000
    Zr15    Zr   0.89981   0.85623   0.44640   1.000
    Zr16    Zr   0.39981   0.64381   0.94647   1.000
    Zr17    Zr   0.89981   0.64381   0.94647   1.000
    Zr18    Zr   0.10019   0.85623   0.94647   1.000
    Zr19    Zr   0.60019   0.85623   0.94647   1.000
    Zr20    Zr   0.39981   0.35622   0.55350   1.000
    Zr21    Zr   0.89981   0.35622   0.55350   1.000
    Zr22    Zr   0.10019   0.14379   0.55350   1.000
    Zr23    Zr   0.60019   0.14379   0.55350   1.000
    O24     O    0.44991   0.19690   0.04998   1.000
    O25     O    0.55010   0.30311   0.04998   1.000
    O26     O    0.94990   0.19690   0.04998   1.000
    O27     O    0.05010   0.30311   0.04998   1.000
    O28     O    0.94991   0.80313   0.44996   1.000
    O29     O    0.05010   0.69691   0.45000   1.000
    O30     O    0.55010   0.69691   0.45000   1.000
    O31     O    0.44990   0.80313   0.45000   1.000
    O32     O    0.44990   0.30311   0.54997   1.000
    O33     O    0.55010   0.19690   0.54997   1.000
    O34     O    0.94990   0.30311   0.54997   1.000
    O35     O    0.05010   0.19690   0.54997   1.000
    O36     O    0.44990   0.69691   0.94999   1.000
    O37     O    0.94990   0.69691   0.94999   1.000
    O38     O    0.05010   0.80313   0.94999   1.000
    O39     O    0.55010   0.80313   0.94999   1.000
    N40     N    0.27244   0.50001   0.74997   1.000
    O41     O    0.37187   0.39328   0.86955   1.000
    O42     O    0.15690   0.39211   0.67142   1.000
    O43     O    0.37187   0.60675   0.63039   1.000
    O44     O    0.15690   0.60791   0.82854   1.000
    N45     N    0.77244   0.50001   0.74998   1.000
    O46     O    0.87187   0.39328   0.86956   1.000
    O47     O    0.65690   0.39211   0.67140   1.000
    O48     O    0.87187   0.60675   0.63042   1.000
    O49     O    0.65690   0.60791   0.82854   1.000
    N50     N    0.22756   0.99991   0.74997   1.000
    O51     O    0.12813   0.10669   0.86955   1.000
    O52     O    0.34310   0.10786   0.67142   1.000
    O53     O    0.12813   0.89323   0.63041   1.000
    O54     O    0.34310   0.89207   0.82854   1.000
    N55     N    0.72756   0.99991   0.74997   1.000
    O56     O    0.62813   0.10669   0.86955   1.000
    O57     O    0.84310   0.10786   0.67142   1.000
    O58     O    0.62813   0.89323   0.63041   1.000
    O59     O    0.84310   0.89207   0.82854   1.000
    N60     N    0.22756   0.50001   0.24998   1.000
    O61     O    0.12813   0.60675   0.13041   1.000
    O62     O    0.34310   0.60791   0.32837   1.000
    O63     O    0.12813   0.39328   0.36956   1.000
    O64     O    0.34310   0.39211   0.17142   1.000
    N65     N    0.72757   0.50001   0.24999   1.000
    O66     O    0.62813   0.60675   0.13042   1.000
    O67     O    0.84310   0.60791   0.32855   1.000
    O68     O    0.62813   0.39327   0.36956   1.000
    O69     O    0.84310   0.39211   0.17143   1.000
    N70     N    0.27244   0.99991   0.24999   1.000
    O71     O    0.37187   0.89323   0.13042   1.000
    O72     O    0.15690   0.89207   0.32855   1.000
    O73     O    0.37187   0.10669   0.36956   1.000
    O74     O    0.15690   0.10786   0.17143   1.000
    N75     N    0.77244   0.99991   0.24999   1.000
    O76     O    0.87187   0.89323   0.13042   1.000
    O77     O    0.65691   0.89207   0.32855   1.000
    O78     O    0.87187   0.10669   0.36956   1.000
    O79     O    0.65691   0.10786   0.17143   1.000
loop_
    _geom_bond_atom_site_label_1
    _geom_bond_atom_site_label_2
    _geom_bond_distance
    _geom_bond_site_symmetry_2
    _ccdc_geom_bond_type
    Zr1    O24       1.31899      .   S
    Zr10   O24       1.31899      .   S
    Zr1    O25       1.31899      .   S
    Zr9    O25       1.31899      .   S
    Zr0    O26       1.31897  1_455   S
    Zr11   O26       1.31897      .   S
    Zr0    O27       1.31899      .   S
    Zr8    O27       1.31899      .   S
    Zr15   O28       1.31900      .   S
    Zr2    O28       1.31900  1_455   S
    Zr12   O29       1.31899      .   S
    Zr2    O29       1.31899      .   S
    Zr13   O30       1.31900      .   S
    Zr3    O30       1.31900      .   S
    Zr14   O31       1.31899      .   S
    Zr3    O31       1.31899      .   S
    Zr7    O32       1.31900      .   S
    Zr20   O32       1.31900      .   S
    Zr7    O33       1.31899      .   S
    Zr23   O33       1.31899      .   S
    Zr6    O34       1.31896      .   S
    Zr21   O34       1.31896      .   S
    Zr6    O35       1.31898  1_655   S
    Zr22   O35       1.31898      .   S
    Zr16   O36       1.31899      .   S
    Zr5    O36       1.31899      .   S
    Zr17   O37       1.31896      .   S
    Zr4    O37       1.31896      .   S
    Zr18   O38       1.31899      .   S
    Zr4    O38       1.31899  1_655   S
    Zr19   O39       1.31899      .   S
    Zr5    O39       1.31899      .   S
    N40    O41       3.23598      .   S
    Zr1    O41       4.44617  1_554   S
    N40    O42       3.11402      .   S
    Zr6    O42       4.30439  1_655   S
    N40    O43       3.23591      .   S
    Zr3    O43       4.44566      .   S
    N40    O44       3.11414      .   S
    Zr4    O44       4.30451  1_655   S
    N45    O46       3.23590      .   S
    Zr0    O46       4.44607  1_454   S
    N45    O47       3.11419      .   S
    Zr7    O47       4.30430      .   S
    N45    O48       3.23581      .   S
    Zr2    O48       4.44588  1_455   S
    N45    O49       3.11410      .   S
    Zr5    O49       4.30446      .   S
    N50    O51       3.23642  1_565   S
    Zr0    O51       4.44656  1_554   S
    N50    O52       3.11450  1_565   S
    Zr7    O52       4.30484      .   S
    N50    O53       3.23519      .   S
    Zr2    O53       4.44525      .   S
    N50    O54       3.11352      .   S
    Zr5    O54       4.30393      .   S
    N55    O56       3.23642  1_565   S
    Zr1    O56       4.44657  1_554   S
    N55    O57       3.11449  1_565   S
    Zr6    O57       4.30480      .   S
    N55    O58       3.23519      .   S
    Zr3    O58       4.44526      .   S
    N55    O59       3.11351      .   S
    Zr4    O59       4.30389      .   S
    N60    O61       3.23583      .   S
    Zr4    O61       4.44597  1_656   S
    N60    O62       3.11305      .   S
    Zr3    O62       4.30576      .   S
    N60    O63       3.23592      .   S
    Zr6    O63       4.44601  1_655   S
    N60    O64       3.11404      .   S
    Zr1    O64       4.30438      .   S
    N65    O66       3.23586      .   S
    Zr5    O66       4.44604  1_556   S
    N65    O67       3.11408      .   S
    Zr2    O67       4.30445  1_455   S
    N65    O68       3.23587      .   S
    Zr7    O68       4.44596      .   S
    N65    O69       3.11406      .   S
    Zr0    O69       4.30439  1_455   S
    N70    O71       3.23529      .   S
    Zr5    O71       4.44545  1_556   S
    N70    O72       3.11348      .   S
    Zr2    O72       4.30389      .   S
    N70    O73       3.23632  1_565   S
    Zr7    O73       4.44637      .   S
    N70    O74       3.11455  1_565   S
    Zr0    O74       4.30486      .   S
    N75    O76       3.23529      .   S
    Zr4    O76       4.44542  1_556   S
    N75    O77       3.11350      .   S
    Zr3    O77       4.30389      .   S
    N75    O78       3.23630  1_565   S
    Zr6    O78       4.44634      .   S
    N75    O79       3.11455  1_565   S
    Zr1    O79       4.30487      .   S
