# CIF file generated by openbabel 2.4.90, see http://openbabel.sf.net
data_I
_chemical_name_common ''
_cell_length_a 6.1945
_cell_length_b 7.7725
_cell_length_c 13.351
_cell_angle_alpha 104.87
_cell_angle_beta 95.281
_cell_angle_gamma 90.019
_space_group_name_H-M_alt 'P 1'
_space_group_name_Hall 'P 1'
loop_
    _symmetry_equiv_pos_as_xyz
    x,y,z
loop_
    _atom_site_label
    _atom_site_type_symbol
    _atom_site_fract_x
    _atom_site_fract_y
    _atom_site_fract_z
    _atom_site_occupancy
    H0      H    0.12698   0.55430   0.57388   1.000
    H1      H    0.99969   0.58806   0.40697   1.000
    H2      H    0.26108   0.12155   0.72812   1.000
    H3      H    0.39458   0.29863   0.89556   1.000
    H4      H    0.30989   0.81474   0.10220   1.000
    H5      H    0.01844   0.79691   0.20777   1.000
    H6      H    0.87020   0.85618   0.65550   1.000
    H7      H    0.67426   0.67184   0.37068   1.000
    H8      H    0.51872   0.35298   0.64731   1.000
    H9      H    0.73193   0.40510   0.92589   1.000
    H10     H    0.49032   0.49520   0.11064   1.000
    H11     H    0.99466   0.43839   0.17472   1.000
    C12     C    0.96987   0.61986   0.57104   1.000
    C13     C    0.94357   0.68986   0.47256   1.000
    C14     C    0.41844   0.18942   0.73106   1.000
    C15     C    0.44738   0.34489   0.83030   1.000
    C16     C    0.31321   0.70163   0.13784   1.000
    C17     C    0.07860   0.66891   0.16331   1.000
    O18     O    0.97251   0.75872   0.66611   1.000
    O19     O    0.72052   0.72477   0.44945   1.000
    O20     O    0.41600   0.24614   0.63660   1.000
    O21     O    0.67084   0.39953   0.85049   1.000
    O22     O    0.38781   0.54896   0.06747   1.000
    O23     O    0.07497   0.54100   0.22201   1.000
loop_
    _geom_bond_atom_site_label_1
    _geom_bond_atom_site_label_2
    _geom_bond_distance
    _geom_bond_site_symmetry_2
    _ccdc_geom_bond_type
    O22    H10       0.98310      .   S
    O22    C16       1.41863      .   S
    H4     C16       1.10125      .   S
    C16    C17       1.55800      .   S
    C17    H5        1.10400      .   S
    C17    O23       1.41642      .   S
    H11    O23       0.98270  1_655   S
    H7     O19       1.03918      .   S
    H1     C13       1.10193      .   S
    O19    C13       1.42920      .   S
    C13    C12       1.54246      .   S
    C12    H0        1.10079  1_655   S
    C12    O18       1.43847      .   S
    O20    H8        1.01821      .   S
    O20    C14       1.43766      .   S
    H6     O18       1.01709      .   S
    H2     C14       1.10097      .   S
    C14    C15       1.54346      .   S
    C15    O21       1.42871      .   S
    C15    H3        1.09939      .   S
    O21    H9        1.03235      .   S
