# CIF file generated by openbabel 2.4.90, see http://openbabel.sf.net
data_I
_chemical_name_common ''
_cell_length_a 6.1945
_cell_length_b 7.7725
_cell_length_c 13.351
_cell_angle_alpha 104.87
_cell_angle_beta 95.281
_cell_angle_gamma 90.019
_space_group_name_H-M_alt 'P 1'
_space_group_name_Hall 'P 1'
loop_
    _symmetry_equiv_pos_as_xyz
    x,y,z
loop_
    _atom_site_label
    _atom_site_type_symbol
    _atom_site_fract_x
    _atom_site_fract_y
    _atom_site_fract_z
    _atom_site_occupancy
    C0      C    0.79075   0.47951   0.56691   1.000
    C1      C    0.08265   0.86023   0.48487   1.000
    C2      C    0.59746   0.05272   0.73461   1.000
    C3      C    0.30654   0.50480   0.82021   1.000
    C4      C    0.46152   0.74903   0.23934   1.000
    C5      C    0.93576   0.60745   0.06051   1.000
    O6      O    0.75816   0.34719   0.48951   1.000
    O7      O    0.68489   0.50573   0.64789   1.000
    O8      O    0.98254   0.99946   0.47533   1.000
    O9      O    0.28569   0.85118   0.50203   1.000
    O10     O    0.70374   0.00827   0.65376   1.000
    O11     O    0.63024   0.98869   0.81204   1.000
    O12     O    0.40576   0.65061   0.82444   1.000
    O13     O    0.10305   0.48174   0.80816   1.000
    O14     O    0.45016   0.90618   0.30034   1.000
    O15     O    0.58368   0.62855   0.25714   1.000
    O16     O    0.90801   0.71941   0.00445   1.000
    O17     O    0.85784   0.45090   0.03697   1.000
loop_
    _geom_bond_atom_site_label_1
    _geom_bond_atom_site_label_2
    _geom_bond_distance
    _geom_bond_site_symmetry_2
    _ccdc_geom_bond_type
    O16    C5        1.28752      .   S
    O17    C5        1.25999      .   S
    C4     O15       1.25999      .   S
    C4     O14       1.28849      .   S
    O8     C1        1.27608  1_655   S
    C1     O9        1.26283      .   S
    O6     C0        1.25794      .   S
    C0     O7        1.28756      .   S
    O10    C2        1.28743      .   S
    C2     O11       1.25817  1_545   S
    O13    C3        1.26281      .   S
    C3     O12       1.27506      .   S
