# CIF file generated by openbabel 2.4.90, see http://openbabel.sf.net
data_I
_chemical_name_common ''
_cell_length_a 6.1945
_cell_length_b 7.7725
_cell_length_c 13.351
_cell_angle_alpha 104.87
_cell_angle_beta 95.281
_cell_angle_gamma 90.019
_space_group_name_H-M_alt 'P 1'
_space_group_name_Hall 'P 1'
loop_
    _symmetry_equiv_pos_as_xyz
    x,y,z
loop_
    _atom_site_label
    _atom_site_type_symbol
    _atom_site_fract_x
    _atom_site_fract_y
    _atom_site_fract_z
    _atom_site_occupancy
    La0     La   0.79688   0.69393   0.82558   1.000
    C1      C    0.79075   0.47951   0.56691   1.000
    C2      C    0.08265   0.86023   0.48487   1.000
    C3      C    0.59746   0.05272   0.73461   1.000
    C4      C    0.30654   0.50480   0.82021   1.000
    C5      C    0.46152   0.74903   0.23934   1.000
    C6      C    0.93576   0.60745   0.06051   1.000
    O7      O    0.75816   0.34719   0.48951   1.000
    O8      O    0.68489   0.50573   0.64789   1.000
    O9      O    0.98254   0.99946   0.47533   1.000
    O10     O    0.28569   0.85118   0.50203   1.000
    O11     O    0.70374   0.00827   0.65376   1.000
    La12    La   0.58903   0.04127   0.47686   1.000
    O13     O    0.63024   0.98869   0.81204   1.000
    O14     O    0.40576   0.65061   0.82444   1.000
    O15     O    0.10305   0.48174   0.80816   1.000
    O16     O    0.45016   0.90618   0.30034   1.000
    O17     O    0.58368   0.62855   0.25714   1.000
    O18     O    0.90801   0.71941   0.00445   1.000
    O19     O    0.85784   0.45090   0.03697   1.000
    Ts20    Ts   0.85542   0.71553   0.77242   1.000
    Ts21    Ts   0.75487   0.59580   0.83388   1.000
    Og22    Og   0.85046   0.52629   0.56829   1.000
    Og23    Og   0.03629   0.80344   0.48077   1.000
    Og24    Og   0.53779   0.09829   0.73343   1.000
    Og25    Og   0.35349   0.45149   0.82357   1.000
    Og26    Og   0.41208   0.73323   0.20551   1.000
    Og27    Og   0.98338   0.62794   0.09478   1.000
    Ts28    Ts   0.63286   0.93577   0.46773   1.000
    Ts29    Ts   0.53135   0.10956   0.53011   1.000
loop_
    _geom_bond_atom_site_label_1
    _geom_bond_atom_site_label_2
    _geom_bond_distance
    _geom_bond_site_symmetry_2
    _ccdc_geom_bond_type
    O18    C6        1.28752      .   S
    O18    La0       2.38138  1_554   S
    O19    C6        1.25999      .   S
    C5     O17       1.25999      .   S
    C5     O16       1.28849      .   S
    O16    La12      2.39851  1_565   S
    O9     La12      2.46055  1_565   S
    O9     C2        1.27608  1_655   S
    La12   O7        2.55727      .   S
    La12   O10       2.48911  1_545   S
    La12   O11       2.48013      .   S
    C2     O10       1.26283      .   S
    O7     C1        1.25794      .   S
    C1     O8        1.28756      .   S
    O8     La0       2.48282      .   S
    O11    C3        1.28743      .   S
    C3     O13       1.25817  1_545   S
    O15    C4        1.26281      .   S
    O15    La0       2.50153  1_455   S
    O13    La0       2.55471      .   S
    C4     O14       1.27506      .   S
    O14    La0       2.44405      .   S
    La0    Ts20      0.87853      .   S
    La0    Ts21      0.84287      .   S
    C1     Og22      0.51436      .   S
    C2     Og23      0.51470      .   S
    C3     Og24      0.51403      .   S
    C4     Og25      0.51521      .   S
    C5     Og26      0.50884      .   S
    C6     Og27      0.50933      .   S
    La12   Ts28      0.84611  1_545   S
    La12   Ts29      0.87632      .   S
