# CIF file generated by openbabel 2.4.90, see http://openbabel.sf.net
data_I
_chemical_name_common ''
_cell_length_a 6.1945
_cell_length_b 7.7725
_cell_length_c 13.351
_cell_angle_alpha 104.87
_cell_angle_beta 95.281
_cell_angle_gamma 90.019
_space_group_name_H-M_alt 'P 1'
_space_group_name_Hall 'P 1'
loop_
    _symmetry_equiv_pos_as_xyz
    x,y,z
loop_
    _atom_site_label
    _atom_site_type_symbol
    _atom_site_fract_x
    _atom_site_fract_y
    _atom_site_fract_z
    _atom_site_occupancy
    La0     La   0.79688   0.69393   0.82558   1.000
    La1     La   0.58903   0.04127   0.47686   1.000
