# CIF file generated by openbabel 2.4.90, see http://openbabel.sf.net
data_I
_chemical_name_common ''
_cell_length_a 6.1945
_cell_length_b 7.7725
_cell_length_c 13.351
_cell_angle_alpha 104.87
_cell_angle_beta 95.281
_cell_angle_gamma 90.019
_space_group_name_H-M_alt 'P 1'
_space_group_name_Hall 'P 1'
loop_
    _symmetry_equiv_pos_as_xyz
    x,y,z
loop_
    _atom_site_label
    _atom_site_type_symbol
    _atom_site_fract_x
    _atom_site_fract_y
    _atom_site_fract_z
    _atom_site_occupancy
    C0      C    0.79075   0.47951   0.56691   1.000
    C1      C    0.08265   0.86023   0.48487   1.000
    C2      C    0.59746   0.05272   0.73461   1.000
    C3      C    0.30654   0.50480   0.82021   1.000
    C4      C    0.46152   0.74903   0.23934   1.000
    C5      C    0.93576   0.60745   0.06051   1.000
