# CIF file generated by openbabel 2.4.90, see http://openbabel.sf.net
data_I
_chemical_name_common ''
_cell_length_a 6.1945
_cell_length_b 7.7725
_cell_length_c 13.351
_cell_angle_alpha 104.87
_cell_angle_beta 95.281
_cell_angle_gamma 90.019
_space_group_name_H-M_alt 'P 1'
_space_group_name_Hall 'P 1'
loop_
    _symmetry_equiv_pos_as_xyz
    x,y,z
loop_
    _atom_site_label
    _atom_site_type_symbol
    _atom_site_fract_x
    _atom_site_fract_y
    _atom_site_fract_z
    _atom_site_occupancy
    Zr0     Zr   0.58903   0.04127   0.47686   1.000
    Zr1     Zr   0.79688   0.69393   0.82558   1.000
    N2      N    0.90970   0.68295   0.52077   1.000
    O3      O    0.78224   0.78298   0.49197   1.000
    O4      O    0.89720   0.70464   0.63331   1.000
    N5      N    0.20849   0.62572   0.14825   1.000
    N6      N    0.48237   0.29478   0.78067   1.000
    O7      O    0.49244   0.21924   0.66870   1.000
    O8      O    0.60812   0.42076   0.80935   1.000
    C9      C    0.27179   0.54572   0.81760   1.000
    O10     O    0.35073   0.45276   0.81028   1.000
    O11     O    0.43655   0.60900   0.82130   1.000
    O12     O    0.11087   0.56678   0.81723   1.000
    C13     C    0.11696   0.90362   0.48741   1.000
    O14     O    0.03918   0.81631   0.49358   1.000
    O15     O    0.27716   0.92492   0.48843   1.000
    O16     O    0.95137   0.96199   0.48175   1.000
    C17     C    0.64381   0.01656   0.73347   1.000
    O18     O    0.67868   0.92893   0.77614   1.000
    O19     O    0.56949   0.11224   0.74511   1.000
    O20     O    0.64510   0.02066   0.64939   1.000
    C21     C    0.74460   0.44414   0.56810   1.000
    O22     O    0.81980   0.53023   0.55649   1.000
    O23     O    0.74274   0.52199   0.65242   1.000
    O24     O    0.70910   0.31919   0.52564   1.000
    C25     C    0.90054   0.59259   0.03397   1.000
    O26     O    0.87649   0.64963   0.97449   1.000
    O27     O    0.00419   0.61227   0.08203   1.000
    C28     C    0.49845   0.76125   0.26560   1.000
    O29     O    0.39819   0.71839   0.21701   1.000
    O30     O    0.50903   0.86749   0.32710   1.000
loop_
    _geom_bond_atom_site_label_1
    _geom_bond_atom_site_label_2
    _geom_bond_distance
    _geom_bond_site_symmetry_2
    _ccdc_geom_bond_type
    N2     O3        1.21404      .   S
    Zr0    O3        2.38080  1_545   S
    N2     O4        1.47756      .   S
    Zr1    O4        2.71765      .   S
    N6     O7        1.46629      .   S
    Zr0    O7        2.70099      .   S
    N6     O8        1.21005      .   S
    Zr1    O8        2.37447      .   S
    C9     O10       0.86222      .   S
    N6     O10       1.46287      .   S
    C9     O11       1.12427      .   S
    Zr1    O11       2.31891      .   S
    C9     O12       1.00994      .   S
    Zr1    O12       2.18108  1_655   S
    C13    O14       0.85745      .   S
    N2     O14       1.44770  1_655   S
    C13    O15       1.00431      .   S
    Zr0    O15       2.16775  1_545   S
    C13    O16       1.12575  1_455   S
    Zr0    O16       2.32734  1_545   S
    C17    O18       1.00577  1_545   S
    Zr1    O18       2.19967      .   S
    C17    O19       0.86215      .   S
    N6     O19       1.49382      .   S
    C17    O20       1.13192      .   S
    Zr0    O20       2.34400      .   S
    C21    O22       0.86896      .   S
    N2     O22       1.51174      .   S
    C21    O23       1.13411      .   S
    Zr1    O23       2.34829      .   S
    C21    O24       1.00365      .   S
    Zr0    O24       2.19797      .   S
    C25    O26       1.00418  1_554   S
    Zr1    O26       2.11796      .   S
    C25    O27       0.84908  1_655   S
    N5     O27       1.46310      .   S
    C28    O29       0.85580      .   S
    N5     O29       1.48459      .   S
    C28    O30       1.00117      .   S
    Zr0    O30       2.12105  1_545   S
