# CIF file generated by openbabel 2.4.90, see http://openbabel.sf.net
data_I
_chemical_name_common ''
_cell_length_a 6.1945
_cell_length_b 7.7725
_cell_length_c 13.351
_cell_angle_alpha 104.87
_cell_angle_beta 95.281
_cell_angle_gamma 90.019
_space_group_name_H-M_alt 'P 1'
_space_group_name_Hall 'P 1'
loop_
    _symmetry_equiv_pos_as_xyz
    x,y,z
loop_
    _atom_site_label
    _atom_site_type_symbol
    _atom_site_fract_x
    _atom_site_fract_y
    _atom_site_fract_z
    _atom_site_occupancy
    Zr0     Zr   0.58903   0.04127   0.47686   1.000
    Zr1     Zr   0.79688   0.69393   0.82558   1.000
    Zr2     Zr   0.79075   0.47951   0.56691   1.000
    Zr3     Zr   0.08265   0.86023   0.48487   1.000
    Zr4     Zr   0.59746   0.05272   0.73461   1.000
    Zr5     Zr   0.30654   0.50480   0.82021   1.000
    Zr6     Zr   0.46152   0.74903   0.23934   1.000
    Zr7     Zr   0.93576   0.60745   0.06051   1.000
    Zr8     Zr   0.75816   0.34719   0.48951   1.000
    Zr9     Zr   0.68489   0.50573   0.64789   1.000
    Zr10    Zr   0.98254   0.99946   0.47533   1.000
    Zr11    Zr   0.28569   0.85118   0.50203   1.000
    Zr12    Zr   0.70374   0.00827   0.65376   1.000
    Zr13    Zr   0.63024   0.98869   0.81204   1.000
    Zr14    Zr   0.40576   0.65061   0.82444   1.000
    Zr15    Zr   0.10305   0.48174   0.80816   1.000
    Zr16    Zr   0.45016   0.90618   0.30034   1.000
    Zr17    Zr   0.58368   0.62855   0.25714   1.000
    Zr18    Zr   0.90801   0.71941   0.00445   1.000
    Zr19    Zr   0.85784   0.45090   0.03697   1.000
    O20     O    0.92189   0.66343   0.03248   1.000
    O21     O    0.85245   0.70667   0.91501   1.000
    O22     O    0.89680   0.52917   0.04874   1.000
    O23     O    0.52260   0.68879   0.24824   1.000
    O24     O    0.45584   0.82760   0.26984   1.000
    O25     O    0.51960   0.97372   0.38860   1.000
    O26     O    0.78578   0.02036   0.47610   1.000
    O27     O    0.03259   0.92984   0.48010   1.000
    O28     O    0.67359   0.19423   0.48319   1.000
    O29     O    0.43736   0.94622   0.48945   1.000
    O30     O    0.64638   0.02477   0.56531   1.000
    O31     O    0.18417   0.85570   0.49345   1.000
    O32     O    0.77446   0.41335   0.52821   1.000
    O33     O    0.73782   0.49262   0.60740   1.000
    O34     O    0.74088   0.59983   0.73673   1.000
    O35     O    0.65060   0.03049   0.69419   1.000
    O36     O    0.61385   0.02070   0.77333   1.000
    O37     O    0.20480   0.49327   0.81418   1.000
    O38     O    0.94996   0.58784   0.81687   1.000
    O39     O    0.71356   0.84131   0.81881   1.000
    O40     O    0.35615   0.57770   0.82232   1.000
    O41     O    0.60132   0.67227   0.82501   1.000
    N42     N    0.90970   0.68295   0.52077   1.000
    O43     O    0.78224   0.78298   0.49197   1.000
    O44     O    0.89501   0.61632   0.54488   1.000
    O45     O    0.96140   0.72899   0.49974   1.000
    O46     O    0.89720   0.70464   0.63331   1.000
    N47     N    0.20849   0.62572   0.14825   1.000
    O48     O    0.10783   0.63195   0.13008   1.000
    O49     O    0.29792   0.67553   0.16842   1.000
    N50     N    0.48237   0.29478   0.78067   1.000
    O51     O    0.49244   0.21924   0.66870   1.000
    O52     O    0.49516   0.20793   0.75675   1.000
    O53     O    0.60812   0.42076   0.80935   1.000
    O54     O    0.42967   0.35981   0.80296   1.000
loop_
    _geom_bond_atom_site_label_1
    _geom_bond_atom_site_label_2
    _geom_bond_distance
    _geom_bond_site_symmetry_2
    _ccdc_geom_bond_type
    Zr18   O20       0.64376      .   S
    Zr7    O20       0.64376      .   S
    Zr18   O21       1.19069  1_554   S
    Zr1    O21       1.19069      .   S
    Zr19   O22       0.63000      .   S
    Zr7    O22       0.63000      .   S
    Zr6    O23       0.62999      .   S
    Zr17   O23       0.62999      .   S
    Zr6    O24       0.64425      .   S
    Zr16   O24       0.64425      .   S
    Zr16   O25       1.19926      .   S
    Zr0    O25       1.19926  1_545   S
    Zr10   O26       1.23028  1_565   S
    Zr0    O26       1.23028      .   S
    Zr10   O27       0.63804  1_655   S
    Zr3    O27       0.63804      .   S
    Zr0    O28       1.27863      .   S
    Zr8    O28       1.27863      .   S
    Zr0    O29       1.24456  1_545   S
    Zr11   O29       1.24456      .   S
    Zr0    O30       1.24007      .   S
    Zr12   O30       1.24007      .   S
    Zr3    O31       0.63141      .   S
    Zr11   O31       0.63141      .   S
    Zr8    O32       0.62897      .   S
    Zr2    O32       0.62897      .   S
    Zr2    O33       0.64378      .   S
    Zr9    O33       0.64378      .   S
    Zr9    O34       1.24141      .   S
    Zr1    O34       1.24141      .   S
    Zr12   O35       0.64371      .   S
    Zr4    O35       0.64371      .   S
    Zr4    O36       0.62908      .   S
    Zr13   O36       0.62908  1_565   S
    Zr15   O37       0.63140      .   S
    Zr5    O37       0.63140      .   S
    Zr15   O38       1.25076  1_455   S
    Zr1    O38       1.25076      .   S
    Zr13   O39       1.27736      .   S
    Zr1    O39       1.27736      .   S
    Zr5    O40       0.63753      .   S
    Zr14   O40       0.63753      .   S
    Zr14   O41       1.22203      .   S
    Zr1    O41       1.22203      .   S
    N42    O43       1.21404      .   S
    Zr0    O43       2.38080  1_545   S
    N42    O44       0.68625      .   S
    Zr2    O44       1.35252      .   S
    N42    O45       0.61446      .   S
    Zr3    O45       1.33223  1_455   S
    N42    O46       1.47756      .   S
    Zr1    O46       2.71765      .   S
    N47    O48       0.65432      .   S
    Zr7    O48       1.32741  1_655   S
    N47    O49       0.66949      .   S
    Zr6    O49       1.33985      .   S
    N50    O51       1.46629      .   S
    Zr0    O51       2.70099      .   S
    N50    O52       0.67677      .   S
    Zr4    O52       1.34023      .   S
    N50    O53       1.21005      .   S
    Zr1    O53       2.37447      .   S
    N50    O54       0.62566      .   S
    Zr5    O54       1.34325      .   S
