# CIF file generated by openbabel 2.4.90, see http://openbabel.sf.net
data_I
_chemical_name_common ''
_cell_length_a 6.1945
_cell_length_b 7.7725
_cell_length_c 13.351
_cell_angle_alpha 104.87
_cell_angle_beta 95.281
_cell_angle_gamma 90.019
_space_group_name_H-M_alt 'P 1'
_space_group_name_Hall 'P 1'
loop_
    _symmetry_equiv_pos_as_xyz
    x,y,z
loop_
    _atom_site_label
    _atom_site_type_symbol
    _atom_site_fract_x
    _atom_site_fract_y
    _atom_site_fract_z
    _atom_site_occupancy
    C0      C    0.58903   0.04127   0.47686   1.000
    C1      C    0.79688   0.69393   0.82558   1.000
    C2      C    0.12698   0.55430   0.57388   1.000
    C3      C    0.99969   0.58806   0.40697   1.000
    C4      C    0.26108   0.12155   0.72812   1.000
    C5      C    0.39458   0.29863   0.89556   1.000
    C6      C    0.30989   0.81474   0.10220   1.000
    C7      C    0.01844   0.79691   0.20777   1.000
    C8      C    0.87020   0.85618   0.65550   1.000
    C9      C    0.67426   0.67184   0.37068   1.000
    C10     C    0.51872   0.35298   0.64731   1.000
    C11     C    0.73193   0.40510   0.92589   1.000
    C12     C    0.49032   0.49520   0.11064   1.000
    C13     C    0.99466   0.43839   0.17472   1.000
    C14     C    0.79075   0.47951   0.56691   1.000
    C15     C    0.96987   0.61986   0.57104   1.000
    C16     C    0.94357   0.68986   0.47256   1.000
    C17     C    0.08265   0.86023   0.48487   1.000
    C18     C    0.59746   0.05272   0.73461   1.000
    C19     C    0.41844   0.18942   0.73106   1.000
    C20     C    0.44738   0.34489   0.83030   1.000
    C21     C    0.30654   0.50480   0.82021   1.000
    C22     C    0.46152   0.74903   0.23934   1.000
    C23     C    0.31321   0.70163   0.13784   1.000
    C24     C    0.07860   0.66891   0.16331   1.000
    C25     C    0.93576   0.60745   0.06051   1.000
    C26     C    0.75816   0.34719   0.48951   1.000
    C27     C    0.68489   0.50573   0.64789   1.000
    C28     C    0.97251   0.75872   0.66611   1.000
    C29     C    0.72052   0.72477   0.44945   1.000
    C30     C    0.98254   0.99946   0.47533   1.000
    C31     C    0.28569   0.85118   0.50203   1.000
    C32     C    0.70374   0.00827   0.65376   1.000
    C33     C    0.63024   0.98869   0.81204   1.000
    C34     C    0.41600   0.24614   0.63660   1.000
    C35     C    0.67084   0.39953   0.85049   1.000
    C36     C    0.40576   0.65061   0.82444   1.000
    C37     C    0.10305   0.48174   0.80816   1.000
    C38     C    0.45016   0.90618   0.30034   1.000
    C39     C    0.58368   0.62855   0.25714   1.000
    C40     C    0.38781   0.54896   0.06747   1.000
    C41     C    0.07497   0.54100   0.22201   1.000
    C42     C    0.90801   0.71941   0.00445   1.000
    C43     C    0.85784   0.45090   0.03697   1.000
    O44     O    0.92189   0.66343   0.03248   1.000
    O45     O    0.85245   0.70667   0.91501   1.000
    O46     O    0.89680   0.52917   0.04874   1.000
    O47     O    0.00718   0.63818   0.11191   1.000
    O48     O    0.43906   0.52208   0.08906   1.000
    O49     O    0.35051   0.62530   0.10266   1.000
    O50     O    0.31155   0.75819   0.12002   1.000
    O51     O    0.19590   0.68527   0.15058   1.000
    O52     O    0.38736   0.72533   0.18859   1.000
    O53     O    0.04852   0.73291   0.18554   1.000
    O54     O    0.07678   0.60496   0.19266   1.000
    O55     O    0.03481   0.48970   0.19836   1.000
    O56     O    0.52260   0.68879   0.24824   1.000
    O57     O    0.45584   0.82760   0.26984   1.000
    O58     O    0.51960   0.97372   0.38860   1.000
    O59     O    0.69739   0.69830   0.41007   1.000
    O60     O    0.97163   0.63896   0.43977   1.000
    O61     O    0.83205   0.70731   0.46101   1.000
    O62     O    0.01311   0.77504   0.47871   1.000
    O63     O    0.95672   0.65486   0.52180   1.000
    O64     O    0.78578   0.02036   0.47610   1.000
    O65     O    0.03259   0.92984   0.48010   1.000
    O66     O    0.67359   0.19423   0.48319   1.000
    O67     O    0.43736   0.94622   0.48945   1.000
    O68     O    0.64638   0.02477   0.56531   1.000
    O69     O    0.18417   0.85570   0.49345   1.000
    O70     O    0.77446   0.41335   0.52821   1.000
    O71     O    0.88031   0.54968   0.56898   1.000
    O72     O    0.73782   0.49262   0.60740   1.000
    O73     O    0.04842   0.58708   0.57246   1.000
    O74     O    0.97119   0.68929   0.61858   1.000
    O75     O    0.46736   0.29956   0.64195   1.000
    O76     O    0.41722   0.21778   0.68383   1.000
    O77     O    0.74088   0.59983   0.73673   1.000
    O78     O    0.65060   0.03049   0.69419   1.000
    O79     O    0.92135   0.80745   0.66080   1.000
    O80     O    0.33976   0.15548   0.72959   1.000
    O81     O    0.50795   0.12107   0.73283   1.000
    O82     O    0.43291   0.26716   0.78068   1.000
    O83     O    0.61385   0.02070   0.77333   1.000
    O84     O    0.20480   0.49327   0.81418   1.000
    O85     O    0.94996   0.58784   0.81687   1.000
    O86     O    0.71356   0.84131   0.81881   1.000
    O87     O    0.35615   0.57770   0.82232   1.000
    O88     O    0.37696   0.42484   0.82525   1.000
    O89     O    0.60132   0.67227   0.82501   1.000
    O90     O    0.55911   0.37221   0.84040   1.000
    O91     O    0.42098   0.32176   0.86293   1.000
    O92     O    0.70138   0.40232   0.88819   1.000
    O93     O    0.88470   0.72633   0.74584   1.000
    O94     O    0.65477   0.88302   0.46316   1.000
    O95     O    0.50252   0.14371   0.55673   1.000
    O96     O    0.73386   0.54673   0.83803   1.000
loop_
    _geom_bond_atom_site_label_1
    _geom_bond_atom_site_label_2
    _geom_bond_distance
    _geom_bond_site_symmetry_2
    _ccdc_geom_bond_type
    C42    O44       0.64376      .   S
    C25    O44       0.64376      .   S
    C42    O45       1.19069  1_554   S
    C1     O45       1.19069      .   S
    C43    O46       0.63000      .   S
    C25    O46       0.63000      .   S
    C25    O47       0.76399  1_655   S
    C24    O47       0.76399      .   S
    C40    O48       0.49155      .   S
    C12    O48       0.49155      .   S
    C40    O49       0.70932      .   S
    C23    O49       0.70932      .   S
    C6     O50       0.55063      .   S
    C23    O50       0.55063      .   S
    C23    O51       0.77900      .   S
    C24    O51       0.77900      .   S
    C23    O52       0.76327      .   S
    C22    O52       0.76327      .   S
    C24    O53       0.55200      .   S
    C7     O53       0.55200      .   S
    C24    O54       0.70821      .   S
    C41    O54       0.70821      .   S
    C13    O55       0.49135  1_655   S
    C41    O55       0.49135      .   S
    C22    O56       0.62999      .   S
    C39    O56       0.62999      .   S
    C22    O57       0.64425      .   S
    C38    O57       0.64425      .   S
    C38    O58       1.19926      .   S
    C0     O58       1.19926  1_545   S
    C9     O59       0.51959      .   S
    C29    O59       0.51959      .   S
    C3     O60       0.55096      .   S
    C16    O60       0.55096      .   S
    C29    O61       0.71460      .   S
    C16    O61       0.71460      .   S
    C16    O62       0.77204  1_655   S
    C17    O62       0.77204      .   S
    C16    O63       0.77123      .   S
    C15    O63       0.77123      .   S
    C30    O64       1.23028  1_565   S
    C0     O64       1.23028      .   S
    C30    O65       0.63804  1_655   S
    C17    O65       0.63804      .   S
    C0     O66       1.27863      .   S
    C26    O66       1.27863      .   S
    C0     O67       1.24456  1_545   S
    C31    O67       1.24456      .   S
    C0     O68       1.24007      .   S
    C32    O68       1.24007      .   S
    C17    O69       0.63141      .   S
    C31    O69       0.63141      .   S
    C26    O70       0.62897      .   S
    C14    O70       0.62897      .   S
    C14    O71       0.77154      .   S
    C15    O71       0.77154      .   S
    C14    O72       0.64378      .   S
    C27    O72       0.64378      .   S
    C15    O73       0.55040  1_655   S
    C2     O73       0.55040      .   S
    C15    O74       0.71923      .   S
    C28    O74       0.71923      .   S
    C34    O75       0.50911      .   S
    C10    O75       0.50911      .   S
    C34    O76       0.71883      .   S
    C19    O76       0.71883      .   S
    C27    O77       1.24141      .   S
    C1     O77       1.24141      .   S
    C32    O78       0.64371      .   S
    C18    O78       0.64371      .   S
    C8     O79       0.50855      .   S
    C28    O79       0.50855      .   S
    C4     O80       0.55049      .   S
    C19    O80       0.55049      .   S
    C19    O81       0.77104      .   S
    C18    O81       0.77104      .   S
    C19    O82       0.77173      .   S
    C20    O82       0.77173      .   S
    C18    O83       0.62908      .   S
    C33    O83       0.62908  1_565   S
    C37    O84       0.63140      .   S
    C21    O84       0.63140      .   S
    C37    O85       1.25076  1_455   S
    C1     O85       1.25076      .   S
    C33    O86       1.27736      .   S
    C1     O86       1.27736      .   S
    C21    O87       0.63753      .   S
    C36    O87       0.63753      .   S
    C21    O88       0.77282      .   S
    C20    O88       0.77282      .   S
    C36    O89       1.22203      .   S
    C1     O89       1.22203      .   S
    C20    O90       0.71435      .   S
    C35    O90       0.71435      .   S
    C20    O91       0.54970      .   S
    C5     O91       0.54970      .   S
    C35    O92       0.51618      .   S
    C11    O92       0.51618      .   S
    C28    O93       1.31779      .   S
    C1     O93       1.31779      .   S
    C29    O94       1.26916      .   S
    C0     O94       1.26916  1_545   S
    C34    O95       1.31447      .   S
    C0     O95       1.31447      .   S
    C35    O96       1.26430      .   S
    C1     O96       1.26430      .   S
