# CIF file generated by openbabel 2.4.90, see http://openbabel.sf.net
data_I
_chemical_name_common ''
_cell_length_a 13.79
_cell_length_b 14.367
_cell_length_c 21.456
_cell_angle_alpha 90.118
_cell_angle_beta 90.021
_cell_angle_gamma 89.909
_space_group_name_H-M_alt 'P 1'
_space_group_name_Hall 'P 1'
loop_
    _symmetry_equiv_pos_as_xyz
    x,y,z
loop_
    _atom_site_label
    _atom_site_type_symbol
    _atom_site_fract_x
    _atom_site_fract_y
    _atom_site_fract_z
    _atom_site_occupancy
    Zn0     Zn   0.47076   0.59784   0.55753   1.000
    Zn1     Zn   0.47085   0.90229   0.05843   1.000
    Zn2     Zn   0.52924   0.40218   0.44245   1.000
    Zn3     Zn   0.97077   0.90221   0.44246   1.000
    Zn4     Zn   0.02917   0.40223   0.05843   1.000
    Zn5     Zn   0.02924   0.09781   0.55752   1.000
    Zn6     Zn   0.97083   0.59778   0.94155   1.000
    Zn7     Zn   0.52916   0.09772   0.94156   1.000
    C8      C    0.50809   0.24903   0.86509   1.000
    C9      C    0.51632   0.38672   0.58485   1.000
    C10     C    0.49199   0.75096   0.63418   1.000
    C11     C    0.48361   0.88640   0.91521   1.000
    C12     C    0.49192   0.75099   0.13490   1.000
    C13     C    0.48369   0.61329   0.41514   1.000
    C14     C    0.50802   0.24906   0.36581   1.000
    C15     C    0.51640   0.11362   0.08477   1.000
    C16     C    0.99193   0.74906   0.36583   1.000
    C17     C    0.98357   0.61360   0.08482   1.000
    C18     C    0.00806   0.25070   0.13480   1.000
    C19     C    0.01620   0.11318   0.41511   1.000
    C20     C    0.00807   0.25096   0.63416   1.000
    C21     C    0.01643   0.38641   0.91516   1.000
    C22     C    0.99194   0.74932   0.86518   1.000
    C23     C    0.98381   0.88683   0.58487   1.000
    O24     O    0.52541   0.16170   0.85596   1.000
    O25     O    0.50003   0.28607   0.91820   1.000
    O26     O    0.47561   0.46484   0.59470   1.000
    O27     O    0.54580   0.35578   0.53211   1.000
    O28     O    0.47452   0.66357   0.64250   1.000
    O29     O    0.50012   0.78908   0.58154   1.000
    O30     O    0.52442   0.96422   0.90491   1.000
    O31     O    0.45448   0.85613   0.96809   1.000
    O32     O    0.47459   0.83832   0.14402   1.000
    O33     O    0.49998   0.71395   0.08178   1.000
    O34     O    0.52439   0.53518   0.40521   1.000
    O35     O    0.45421   0.64424   0.46788   1.000
    O36     O    0.52549   0.33645   0.35740   1.000
    O37     O    0.49988   0.21094   0.41844   1.000
    O38     O    0.47559   0.03580   0.09507   1.000
    O39     O    0.54553   0.14389   0.03189   1.000
    O40     O    0.97453   0.83650   0.35748   1.000
    O41     O    0.00000   0.71095   0.41848   1.000
    O42     O    0.02430   0.53565   0.09521   1.000
    O43     O    0.95446   0.64391   0.03191   1.000
    O44     O    0.02550   0.33796   0.14393   1.000
    O45     O    0.00000   0.21363   0.08170   1.000
    O46     O    0.97545   0.03520   0.40522   1.000
    O47     O    0.04566   0.14413   0.46785   1.000
    O48     O    0.02547   0.16352   0.64250   1.000
    O49     O    0.99991   0.28906   0.58150   1.000
    O50     O    0.97571   0.46437   0.90477   1.000
    O51     O    0.04554   0.35611   0.96807   1.000
    O52     O    0.97450   0.66206   0.85606   1.000
    O53     O    0.00000   0.78638   0.91828   1.000
    O54     O    0.02455   0.96482   0.59476   1.000
    O55     O    0.95435   0.85589   0.53214   1.000
    Ts56    Ts   0.52343   0.59835   0.55562   1.000
    Ts57    Ts   0.41805   0.59408   0.55912   1.000
    Ts58    Ts   0.52350   0.90182   0.05644   1.000
    Ts59    Ts   0.41815   0.90597   0.05992   1.000
    Ts60    Ts   0.47657   0.40166   0.44436   1.000
    Ts61    Ts   0.58195   0.40593   0.44083   1.000
    Ts62    Ts   0.02344   0.90164   0.44436   1.000
    Ts63    Ts   0.91804   0.90601   0.44085   1.000
    Ts64    Ts   0.97653   0.40181   0.05640   1.000
    Ts65    Ts   0.08186   0.40583   0.05993   1.000
    Ts66    Ts   0.97657   0.09838   0.55562   1.000
    Ts67    Ts   0.08196   0.09401   0.55914   1.000
    Ts68    Ts   0.02348   0.59820   0.94358   1.000
    Ts69    Ts   0.91814   0.59419   0.94003   1.000
    Ts70    Ts   0.47650   0.09819   0.94355   1.000
    Ts71    Ts   0.58185   0.09404   0.94007   1.000
    Og72    Og   0.50438   0.26934   0.84654   1.000
    Og73    Og   0.52101   0.36537   0.60267   1.000
    Og74    Og   0.49571   0.77088   0.65297   1.000
    Og75    Og   0.47875   0.86497   0.89739   1.000
    Og76    Og   0.49563   0.73068   0.15344   1.000
    Og77    Og   0.47899   0.63465   0.39732   1.000
    Og78    Og   0.50430   0.22914   0.34701   1.000
    Og79    Og   0.52126   0.13505   0.10259   1.000
    Og80    Og   0.99462   0.72911   0.34705   1.000
    Og81    Og   0.97874   0.63508   0.10261   1.000
    Og82    Og   0.00432   0.23043   0.15335   1.000
    Og83    Og   0.02092   0.13449   0.39728   1.000
    Og84    Og   0.00439   0.27091   0.65277   1.000
    Og85    Og   0.02126   0.36494   0.89735   1.000
    Og86    Og   0.99463   0.76959   0.84663   1.000
    Og87    Og   0.97908   0.86552   0.60270   1.000
loop_
    _geom_bond_atom_site_label_1
    _geom_bond_atom_site_label_2
    _geom_bond_distance
    _geom_bond_site_symmetry_2
    _ccdc_geom_bond_type
    O39    C15       1.28095      .   S
    O39    Zn7       2.05963  1_554   S
    O43    C17       1.28084      .   S
    O43    Zn6       2.05995  1_554   S
    Zn1    O38       2.07258  1_565   S
    Zn1    O32       2.05589      .   S
    Zn1    O31       2.05984  1_554   S
    Zn4    O42       2.07231      .   S
    Zn4    O44       2.05620      .   S
    Zn4    O51       2.05995  1_554   S
    O45    C18       1.26160      .   S
    O33    C12       1.26174      .   S
    C15    O38       1.27218      .   S
    C17    O42       1.27219  1_655   S
    C18    O44       1.29135      .   S
    C12    O32       1.29129      .   S
    O36    C14       1.29181      .   S
    O36    Zn2       2.05369      .   S
    O40    C16       1.29150      .   S
    O40    Zn3       2.05212      .   S
    C14    O37       1.26114      .   S
    C16    O41       1.26112  1_655   S
    O34    C13       1.27167      .   S
    O34    Zn2       2.07355      .   S
    O46    C19       1.27159  1_655   S
    O46    Zn3       2.07369  1_545   S
    C19    O47       1.28114      .   S
    C13    O35       1.28106      .   S
    Zn2    O27       2.04983      .   S
    Zn3    O55       2.05003      .   S
    O47    Zn5       2.04983      .   S
    O35    Zn0       2.04963      .   S
    O27    C9        1.28105      .   S
    O55    C23       1.28095      .   S
    Zn5    O54       2.07369  1_545   S
    Zn5    O48       2.05212      .   S
    Zn0    O26       2.07297      .   S
    Zn0    O28       2.05217      .   S
    O49    C20       1.26143  1_655   S
    O29    C10       1.26134      .   S
    C9     O26       1.27139      .   S
    C23    O54       1.27159  1_655   S
    C20    O48       1.29148      .   S
    C10    O28       1.29153      .   S
    O24    C8        1.29131      .   S
    O24    Zn7       2.05609      .   S
    O52    C22       1.29133      .   S
    O52    Zn6       2.05600      .   S
    C8     O25       1.26155      .   S
    C22    O53       1.26158  1_655   S
    O50    C21       1.27218  1_655   S
    O50    Zn6       2.07231      .   S
    O30    C11       1.27218      .   S
    O30    Zn7       2.07268  1_565   S
    C21    O51       1.28085      .   S
    C11    O31       1.28096      .   S
    Zn0    Ts56      0.72754      .   S
    Zn0    Ts57      0.72974      .   S
    Zn1    Ts58      0.72746      .   S
    Zn1    Ts59      0.72917      .   S
    Zn2    Ts60      0.72753      .   S
    Zn2    Ts61      0.72976      .   S
    Zn3    Ts62      0.72747  1_655   S
    Zn3    Ts63      0.72983      .   S
    Zn4    Ts64      0.72729  1_455   S
    Zn4    Ts65      0.72923      .   S
    Zn5    Ts66      0.72747  1_455   S
    Zn5    Ts67      0.72983      .   S
    Zn6    Ts68      0.72729  1_655   S
    Zn6    Ts69      0.72924      .   S
    Zn7    Ts70      0.72746      .   S
    Zn7    Ts71      0.72918      .   S
    C8     Og72      0.49652      .   S
    C9     Og73      0.49485      .   S
    C10    Og74      0.49653      .   S
    C11    Og75      0.49506      .   S
    C12    Og76      0.49645      .   S
    C13    Og77      0.49485      .   S
    C14    Og78      0.49683      .   S
    C15    Og79      0.49506      .   S
    C16    Og80      0.49533      .   S
    C17    Og81      0.49482      .   S
    C18    Og82      0.49649      .   S
    C19    Og83      0.49486      .   S
    C20    Og84      0.49364      .   S
    C21    Og85      0.49504      .   S
    C22    Og86      0.49517      .   S
    C23    Og87      0.49486      .   S
