# CIF file generated by openbabel 2.4.90, see http://openbabel.sf.net
data_I
_chemical_name_common ''
_cell_length_a 13.79
_cell_length_b 14.367
_cell_length_c 21.456
_cell_angle_alpha 90.118
_cell_angle_beta 90.021
_cell_angle_gamma 89.909
_space_group_name_H-M_alt 'P 1'
_space_group_name_Hall 'P 1'
loop_
    _symmetry_equiv_pos_as_xyz
    x,y,z
loop_
    _atom_site_label
    _atom_site_type_symbol
    _atom_site_fract_x
    _atom_site_fract_y
    _atom_site_fract_z
    _atom_site_occupancy
    N0      N    0.02880   0.41041   0.43965   1.000
    N1      N    0.01357   0.18383   0.27611   1.000
    N2      N    0.02872   0.08927   0.93931   1.000
    N3      N    0.51395   0.18414   0.22375   1.000
    N4      N    0.47118   0.91047   0.43967   1.000
    N5      N    0.97938   0.68416   0.22378   1.000
    N6      N    0.52883   0.08955   0.56031   1.000
    N7      N    0.51363   0.31598   0.72380   1.000
    N8      N    0.48606   0.81587   0.77622   1.000
    N9      N    0.52875   0.41058   0.06060   1.000
    N10     N    0.47125   0.58943   0.93937   1.000
    N11     N    0.97128   0.91074   0.06065   1.000
    N12     N    0.01399   0.31586   0.77613   1.000
    N13     N    0.97121   0.58960   0.56029   1.000
    N14     N    0.97972   0.81619   0.72388   1.000
    N15     N    0.48637   0.68404   0.27617   1.000
    Zr16    Zr   0.50000   0.50001   0.49998   1.000
    O17     O    0.49591   0.64918   0.60964   1.000
    O18     O    0.50925   0.41767   0.58384   1.000
    O19     O    0.49076   0.58234   0.41614   1.000
    O20     O    0.63024   0.54706   0.52873   1.000
    O21     O    0.34073   0.54546   0.53004   1.000
    O22     O    0.50410   0.35084   0.39033   1.000
    O23     O    0.36976   0.45296   0.47123   1.000
    O24     O    0.65928   0.45456   0.46991   1.000
    Zr25    Zr   0.50000   0.00001   0.99999   1.000
    O26     O    0.49060   0.91753   0.91617   1.000
    O27     O    0.49596   0.85115   0.10972   1.000
    O28     O    0.50404   0.14887   0.89026   1.000
    O29     O    0.65923   0.04537   0.96965   1.000
    O30     O    0.36972   0.04693   0.97096   1.000
    O31     O    0.50941   0.08248   0.08381   1.000
    O32     O    0.34077   0.95464   0.03032   1.000
    O33     O    0.63028   0.95309   0.02902   1.000
    Zr34    Zr   1.00000   0.00001   0.49999   1.000
    O35     O    0.00921   0.08225   0.41611   1.000
    O36     O    0.99383   0.85083   0.39036   1.000
    O37     O    0.98911   0.91777   0.58387   1.000
    O38     O    0.00413   0.14919   0.60955   1.000
    O39     O    0.15928   0.04542   0.53006   1.000
    O40     O    0.86976   0.04706   0.52874   1.000
    O41     O    0.13023   0.95296   0.47124   1.000
    O42     O    0.84071   0.95460   0.46992   1.000
    Zr43    Zr   0.00000   0.50001   0.99999   1.000
    O44     O    0.00401   0.35103   0.10968   1.000
    O45     O    0.98892   0.58250   0.08382   1.000
    O46     O    0.00942   0.41752   0.91614   1.000
    O47     O    0.84076   0.54546   0.96966   1.000
    O48     O    0.13026   0.54697   0.97099   1.000
    O49     O    0.86974   0.45305   0.02899   1.000
    O50     O    0.15924   0.45456   0.03032   1.000
    O51     O    0.99392   0.64898   0.89030   1.000
loop_
    _geom_bond_atom_site_label_1
    _geom_bond_atom_site_label_2
    _geom_bond_distance
    _geom_bond_site_symmetry_2
    _ccdc_geom_bond_type
    Zr16   O17       3.17972      .   S
    N8     O17       4.30035      .   S
    Zr16   O18       2.15888      .   S
    N7     O18       3.34287      .   S
    Zr16   O19       2.15872      .   S
    N15    O19       3.34285      .   S
    Zr16   O20       2.01605      .   S
    N13    O20       4.79010      .   S
    Zr16   O21       2.37934      .   S
    N13    O21       5.17492  1_655   S
    Zr16   O22       3.17971      .   S
    N3     O22       4.30032      .   S
    Zr16   O23       2.01607      .   S
    N0     O23       4.79016      .   S
    Zr16   O24       2.37940      .   S
    N0     O24       5.17494  1_455   S
    Zr25   O26       2.15565  1_545   S
    N8     O26       3.33706      .   S
    Zr25   O27       3.18449  1_546   S
    N15    O27       4.30965      .   S
    Zr25   O28       3.18452      .   S
    N7     O28       4.30979      .   S
    Zr25   O29       2.38270      .   S
    N2     O29       5.17669  1_455   S
    Zr25   O30       2.01667      .   S
    N2     O30       4.78894      .   S
    Zr25   O31       2.15556  1_556   S
    N3     O31       3.33683      .   S
    Zr25   O32       2.38267  1_546   S
    N11    O32       5.17664  1_655   S
    Zr25   O33       2.01665  1_546   S
    N11    O33       4.78888      .   S
    Zr34   O35       2.15881  1_655   S
    N1     O35       3.34306      .   S
    Zr34   O36       3.18027  1_545   S
    N5     O36       4.30273      .   S
    Zr34   O37       2.16030  1_545   S
    N14    O37       3.34508      .   S
    Zr34   O38       3.17837  1_655   S
    N12    O38       4.30033      .   S
    Zr34   O39       2.38090  1_655   S
    N6     O39       5.17674      .   S
    Zr34   O40       2.01444      .   S
    N6     O40       4.78821      .   S
    Zr34   O41       2.01454  1_645   S
    N4     O41       4.78830      .   S
    Zr34   O42       2.38082  1_545   S
    N4     O42       5.17665      .   S
    Zr43   O44       3.18483  1_556   S
    N1     O44       4.30965      .   S
    Zr43   O45       2.15721  1_456   S
    N5     O45       3.33917      .   S
    Zr43   O46       2.15615      .   S
    N12    O46       3.33813      .   S
    Zr43   O47       2.38079  1_455   S
    N10    O47       5.17447      .   S
    Zr43   O48       2.01879      .   S
    N10    O48       4.79128      .   S
    Zr43   O49       2.01877  1_456   S
    N9     O49       4.79125      .   S
    Zr43   O50       2.38074  1_556   S
    N9     O50       5.17446      .   S
    Zr43   O51       3.18542  1_455   S
    N14    O51       4.31200      .   S
