# CIF file generated by openbabel 2.4.90, see http://openbabel.sf.net
data_I
_chemical_name_common ''
_cell_length_a 8.75381
_cell_length_b 9.01039
_cell_length_c 14.899
_cell_angle_alpha 90.0054
_cell_angle_beta 90.0205
_cell_angle_gamma 90.0046
_space_group_name_H-M_alt 'P 1'
_space_group_name_Hall 'P 1'
loop_
    _symmetry_equiv_pos_as_xyz
    x,y,z
loop_
    _atom_site_label
    _atom_site_type_symbol
    _atom_site_fract_x
    _atom_site_fract_y
    _atom_site_fract_z
    _atom_site_occupancy
    Y0      Y    0.50069   0.00043   0.29303   1.000
    Y1      Y    0.00060   0.00039   0.98647   1.000
    Y2      Y    0.49908   0.50039   0.48646   1.000
    Y3      Y    0.99920   0.50046   0.79304   1.000
