# CIF file generated by openbabel 2.4.90, see http://openbabel.sf.net
data_I
_chemical_name_common ''
_cell_length_a 8.75381
_cell_length_b 9.01039
_cell_length_c 14.899
_cell_angle_alpha 90.0054
_cell_angle_beta 90.0205
_cell_angle_gamma 90.0046
_space_group_name_H-M_alt 'P 1'
_space_group_name_Hall 'P 1'
loop_
    _symmetry_equiv_pos_as_xyz
    x,y,z
loop_
    _atom_site_label
    _atom_site_type_symbol
    _atom_site_fract_x
    _atom_site_fract_y
    _atom_site_fract_z
    _atom_site_occupancy
    N0      N    0.75023   0.48922   0.13990   1.000
    N1      N    0.24956   0.01163   0.63960   1.000
    N2      N    0.25018   0.51154   0.13959   1.000
    N3      N    0.74996   0.98980   0.63993   1.000
    Zr4     Zr   0.49908   0.50039   0.48646   1.000
    O5      O    0.57852   0.34630   0.52510   1.000
    O6      O    0.58035   0.50750   0.38567   1.000
    O7      O    0.58230   0.63514   0.53706   1.000
    O8      O    0.41614   0.36584   0.53695   1.000
    O9      O    0.42010   0.65474   0.52491   1.000
    O10     O    0.41848   0.49310   0.38558   1.000
    Zr11    Zr   0.00060   0.00039   0.98647   1.000
    O12     O    0.07960   0.15471   0.02490   1.000
    O13     O    0.91752   0.13500   0.03706   1.000
    O14     O    0.92130   0.84615   0.02511   1.000
    O15     O    0.08120   0.99313   0.88558   1.000
    O16     O    0.08358   0.86581   0.03694   1.000
    O17     O    0.91943   0.00766   0.88569   1.000
    Zr18    Zr   0.50069   0.00043   0.29303   1.000
    O19     O    0.58137   0.00788   0.39391   1.000
    O20     O    0.58362   0.13499   0.24254   1.000
    O21     O    0.57967   0.84610   0.25458   1.000
    O22     O    0.42133   0.15466   0.25440   1.000
    O23     O    0.41750   0.86581   0.24247   1.000
    O24     O    0.41944   0.99334   0.39383   1.000
    Zr25    Zr   0.99920   0.50046   0.79304   1.000
    O26     O    0.91630   0.63518   0.74257   1.000
    O27     O    0.91862   0.50774   0.89392   1.000
    O28     O    0.08231   0.36587   0.74245   1.000
    O29     O    0.07850   0.65471   0.75440   1.000
    O30     O    0.08044   0.49332   0.89382   1.000
    O31     O    0.92028   0.34627   0.75460   1.000
loop_
    _geom_bond_atom_site_label_1
    _geom_bond_atom_site_label_2
    _geom_bond_distance
    _geom_bond_site_symmetry_2
    _ccdc_geom_bond_type
    Zr4    O5        1.65617      .   S
    N3     O5        3.93667  1_565   S
    Zr4    O6        1.66319      .   S
    N0     O6        3.95612      .   S
    Zr4    O7        1.60388      .   S
    N3     O7        3.83558      .   S
    Zr4    O8        1.60097      .   S
    N1     O8        3.82798      .   S
    Zr4    O9        1.65538      .   S
    N1     O9        3.93595  1_545   S
    Zr4    O10       1.66144      .   S
    N2     O10       3.95315      .   S
    Zr11   O12       1.65493  1_556   S
    N2     O12       3.93492      .   S
    Zr11   O13       1.60262  1_456   S
    N0     O13       3.83154      .   S
    Zr11   O14       1.65685  1_446   S
    N0     O14       3.93860      .   S
    Zr11   O15       1.66194  1_545   S
    N1     O15       3.95415  1_545   S
    Zr11   O16       1.60108  1_546   S
    N2     O16       3.82823      .   S
    Zr11   O17       1.66215  1_455   S
    N3     O17       3.95349  1_565   S
    Zr18   O19       1.66185      .   S
    N3     O19       3.95425  1_565   S
    Zr18   O20       1.60109      .   S
    N0     O20       3.82816      .   S
    Zr18   O21       1.65538  1_545   S
    N0     O21       3.93579      .   S
    Zr18   O22       1.65681      .   S
    N2     O22       3.93844      .   S
    Zr18   O23       1.60265  1_545   S
    N2     O23       3.83157      .   S
    Zr18   O24       1.66314  1_545   S
    N1     O24       3.95611  1_545   S
    Zr25   O26       1.60162      .   S
    N3     O26       3.82999      .   S
    Zr25   O27       1.66190      .   S
    N0     O27       3.95417  1_554   S
    Zr25   O28       1.60260  1_655   S
    N1     O28       3.83155      .   S
    Zr25   O29       1.65682  1_655   S
    N1     O29       3.93862  1_545   S
    Zr25   O30       1.66243  1_655   S
    N2     O30       3.95463  1_554   S
    Zr25   O31       1.65377      .   S
    N3     O31       3.93126  1_565   S
