# CIF file generated by openbabel 2.4.90, see http://openbabel.sf.net
data_I
_chemical_name_common ''
_cell_length_a 11.6274
_cell_length_b 11.638
_cell_length_c 11.6507
_cell_angle_alpha 95.2968
_cell_angle_beta 116.299
_cell_angle_gamma 95.1862
_space_group_name_H-M_alt 'P 1'
_space_group_name_Hall 'P 1'
loop_
    _symmetry_equiv_pos_as_xyz
    x,y,z
loop_
    _atom_site_label
    _atom_site_type_symbol
    _atom_site_fract_x
    _atom_site_fract_y
    _atom_site_fract_z
    _atom_site_occupancy
    Lv0     Lv   0.86293   0.92201   0.66468   1.000
    Lv1     Lv   0.16611   0.42398   0.36309   1.000
    Lv2     Lv   0.11053   0.20567   0.84118   1.000
    Lv3     Lv   0.34085   0.70875   0.61073   1.000
    Lv4     Lv   0.83557   0.57834   0.63755   1.000
    Lv5     Lv   0.13639   0.07568   0.33361   1.000
    Lv6     Lv   0.88950   0.79433   0.15885   1.000
    Lv7     Lv   0.65918   0.29125   0.38930   1.000
