# CIF file generated by openbabel 2.4.90, see http://openbabel.sf.net
data_I
_chemical_name_common ''
_cell_length_a 23.285
_cell_length_b 13.976
_cell_length_c 15.782
_cell_angle_alpha 96.063
_cell_angle_beta 89.996
_cell_angle_gamma 89.977
_space_group_name_H-M_alt 'P 1'
_space_group_name_Hall 'P 1'
loop_
    _symmetry_equiv_pos_as_xyz
    x,y,z
loop_
    _atom_site_label
    _atom_site_type_symbol
    _atom_site_fract_x
    _atom_site_fract_y
    _atom_site_fract_z
    _atom_site_occupancy
    Zr0     Zr   0.04742   0.19675   0.98514   1.000
    Zr1     Zr   0.54742   0.19675   0.98514   1.000
    Zr2     Zr   0.04785   0.40011   0.00340   1.000
    Zr3     Zr   0.54784   0.40011   0.00340   1.000
    Zr4     Zr   0.29739   0.80324   0.01482   1.000
    Zr5     Zr   0.79738   0.80324   0.01482   1.000
    Zr6     Zr   0.29786   0.59988   0.99656   1.000
    Zr7     Zr   0.79785   0.59988   0.99656   1.000
    O8      O    0.04764   0.29843   0.99427   1.000
    O9      O    0.54763   0.29843   0.99427   1.000
    O10     O    0.29762   0.70156   0.00569   1.000
    O11     O    0.79762   0.70156   0.00569   1.000
    N12     N    0.79749   0.29748   0.49446   1.000
    O13     O    0.68500   0.34346   0.27491   1.000
    O14     O    0.68984   0.25316   0.26091   1.000
    O15     O    0.69063   0.34162   0.72865   1.000
    O16     O    0.68615   0.25109   0.71490   1.000
    O17     O    0.90892   0.25504   0.26570   1.000
    O18     O    0.90451   0.34552   0.26851   1.000
    O19     O    0.91012   0.34152   0.72215   1.000
    O20     O    0.90505   0.25124   0.71962   1.000
    N21     N    0.29750   0.29748   0.49446   1.000
    O22     O    0.18501   0.34346   0.27491   1.000
    O23     O    0.18984   0.25316   0.26091   1.000
    O24     O    0.19064   0.34163   0.72865   1.000
    O25     O    0.18616   0.25109   0.71490   1.000
    O26     O    0.40893   0.25504   0.26570   1.000
    O27     O    0.40451   0.34552   0.26851   1.000
    O28     O    0.41012   0.34152   0.72215   1.000
    O29     O    0.40506   0.25124   0.71962   1.000
    N30     N    0.04749   0.70250   0.50549   1.000
    O31     O    0.93500   0.65653   0.72504   1.000
    O32     O    0.93982   0.74683   0.73905   1.000
    O33     O    0.94063   0.65836   0.27129   1.000
    O34     O    0.93613   0.74890   0.28506   1.000
    O35     O    0.15890   0.74495   0.73426   1.000
    O36     O    0.15451   0.65448   0.73144   1.000
    O37     O    0.16013   0.65847   0.27776   1.000
    O38     O    0.15504   0.74876   0.28034   1.000
    N39     N    0.54749   0.70250   0.50549   1.000
    O40     O    0.43501   0.65653   0.72504   1.000
    O41     O    0.43982   0.74683   0.73905   1.000
    O42     O    0.44064   0.65836   0.27129   1.000
    O43     O    0.43614   0.74890   0.28506   1.000
    O44     O    0.65890   0.74495   0.73426   1.000
    O45     O    0.65451   0.65448   0.73144   1.000
    O46     O    0.66012   0.65847   0.27778   1.000
    O47     O    0.65504   0.74876   0.28034   1.000
    N48     N    0.54736   0.79833   0.99535   1.000
    O49     O    0.54783   0.63593   0.00003   1.000
    O50     O    0.54702   0.96068   0.99009   1.000
    N51     N    0.04736   0.79833   0.99535   1.000
    O52     O    0.04783   0.63593   0.00003   1.000
    O53     O    0.04702   0.96068   0.99009   1.000
    N54     N    0.29736   0.20133   0.00294   1.000
    O55     O    0.29784   0.36390   0.99909   1.000
    O56     O    0.29701   0.03915   0.00904   1.000
    N57     N    0.79736   0.20133   0.00294   1.000
    O58     O    0.79784   0.36390   0.99909   1.000
    O59     O    0.79700   0.03915   0.00904   1.000
loop_
    _geom_bond_atom_site_label_1
    _geom_bond_atom_site_label_2
    _geom_bond_distance
    _geom_bond_site_symmetry_2
    _ccdc_geom_bond_type
    Zr0    O8        1.41314      .   S
    Zr2    O8        1.41314  1_554   S
    Zr1    O9        1.41314      .   S
    Zr3    O9        1.41314  1_554   S
    Zr4    O10       1.41314      .   S
    Zr6    O10       1.41314  1_556   S
    Zr5    O11       1.41314      .   S
    Zr7    O11       1.41314  1_556   S
    N12    O13       4.44401      .   S
    Zr3    O13       5.46856      .   S
    N12    O14       4.44675      .   S
    Zr1    O14       5.46256  1_556   S
    N12    O15       4.44397      .   S
    Zr3    O15       5.45637  1_554   S
    N12    O16       4.44099      .   S
    Zr1    O16       5.46684      .   S
    N12    O17       4.43433      .   S
    Zr0    O17       5.46836  1_456   S
    N12    O18       4.45881      .   S
    Zr2    O18       5.46831  1_455   S
    N12    O19       4.43905      .   S
    Zr2    O19       5.46747  1_454   S
    N12    O20       4.45000      .   S
    Zr0    O20       5.45934  1_455   S
    N21    O22       4.44402      .   S
    Zr2    O22       5.46856      .   S
    N21    O23       4.44675      .   S
    Zr0    O23       5.46257  1_556   S
    N21    O24       4.44396      .   S
    Zr2    O24       5.45637  1_554   S
    N21    O25       4.44099      .   S
    Zr0    O25       5.46684      .   S
    N21    O26       4.43427      .   S
    Zr1    O26       5.46820  1_556   S
    N21    O27       4.45876      .   S
    Zr3    O27       5.46814      .   S
    N21    O28       4.43899      .   S
    Zr3    O28       5.46730  1_554   S
    N21    O29       4.44995      .   S
    Zr1    O29       5.45916      .   S
    N30    O31       4.44403  1_455   S
    Zr7    O31       5.46853      .   S
    N30    O32       4.44651  1_455   S
    Zr5    O32       5.46202  1_554   S
    N30    O33       4.44460  1_455   S
    Zr7    O33       5.45674  1_556   S
    N30    O34       4.44106  1_455   S
    Zr5    O34       5.46701      .   S
    N30    O35       4.43478      .   S
    Zr4    O35       5.46899  1_554   S
    N30    O36       4.45896      .   S
    Zr6    O36       5.46842      .   S
    N30    O37       4.43900      .   S
    Zr6    O37       5.46620  1_556   S
    N30    O38       4.44985      .   S
    Zr4    O38       5.45899      .   S
    N39    O40       4.44397      .   S
    Zr6    O40       5.46848      .   S
    N39    O41       4.44644      .   S
    Zr4    O41       5.46197  1_554   S
    N39    O42       4.44455      .   S
    Zr6    O42       5.45669  1_556   S
    N39    O43       4.44100      .   S
    Zr4    O43       5.46695      .   S
    N39    O44       4.43473      .   S
    Zr5    O44       5.46894  1_554   S
    N39    O45       4.45891      .   S
    Zr7    O45       5.46838      .   S
    N39    O46       4.43877      .   S
    Zr7    O46       5.46635  1_556   S
    N39    O47       4.44980      .   S
    Zr5    O47       5.45895      .   S
    N48    O49       2.27879  1_556   S
    Zr3    O49       3.30177      .   S
    N48    O50       2.27931      .   S
    Zr1    O50       3.30850  1_545   S
    N51    O52       2.27879  1_556   S
    Zr2    O52       3.30178      .   S
    N51    O53       2.27930      .   S
    Zr0    O53       3.30850  1_545   S
    N54    O55       2.27930  1_554   S
    Zr6    O55       3.30249      .   S
    N54    O56       2.27892      .   S
    Zr4    O56       3.30793  1_565   S
    N57    O58       2.27930  1_554   S
    Zr7    O58       3.30249      .   S
    N57    O59       2.27892      .   S
    Zr5    O59       3.30793  1_565   S
