# CIF file generated by openbabel 2.4.90, see http://openbabel.sf.net
data_I
_chemical_name_common ''
_cell_length_a 23.285
_cell_length_b 13.976
_cell_length_c 15.782
_cell_angle_alpha 96.063
_cell_angle_beta 89.996
_cell_angle_gamma 89.977
_space_group_name_H-M_alt 'P 1'
_space_group_name_Hall 'P 1'
loop_
    _symmetry_equiv_pos_as_xyz
    x,y,z
loop_
    _atom_site_label
    _atom_site_type_symbol
    _atom_site_fract_x
    _atom_site_fract_y
    _atom_site_fract_z
    _atom_site_occupancy
    N0      N    0.79749   0.29748   0.49446   1.000
    N1      N    0.29750   0.29748   0.49446   1.000
    N2      N    0.04749   0.70250   0.50549   1.000
    N3      N    0.54749   0.70250   0.50549   1.000
    N4      N    0.54736   0.79833   0.99535   1.000
    N5      N    0.04736   0.79833   0.99535   1.000
    N6      N    0.29736   0.20133   0.00294   1.000
    N7      N    0.79736   0.20133   0.00294   1.000
    Zr8     Zr   0.04764   0.29843   0.99427   1.000
    O9      O    0.97607   0.32198   0.13139   1.000
    O10     O    0.97888   0.31998   0.85821   1.000
    O11     O    0.11632   0.32094   0.13459   1.000
    O12     O    0.11914   0.32003   0.86146   1.000
    O13     O    0.04773   0.46718   0.99715   1.000
    O14     O    0.11874   0.27580   0.12759   1.000
    O15     O    0.97634   0.27484   0.85694   1.000
    O16     O    0.97828   0.27674   0.12998   1.000
    O17     O    0.11690   0.27476   0.85458   1.000
    O18     O    0.04733   0.12956   0.99218   1.000
    Zr19    Zr   0.54763   0.29843   0.99427   1.000
    O20     O    0.61873   0.27580   0.12759   1.000
    O21     O    0.61689   0.27476   0.85458   1.000
    O22     O    0.47634   0.27484   0.85694   1.000
    O23     O    0.47828   0.27674   0.12998   1.000
    O24     O    0.54732   0.12956   0.99218   1.000
    O25     O    0.61631   0.32094   0.13459   1.000
    O26     O    0.61913   0.32003   0.86146   1.000
    O27     O    0.47888   0.31998   0.85821   1.000
    O28     O    0.47607   0.32198   0.13139   1.000
    O29     O    0.54773   0.46718   0.99715   1.000
    Zr30    Zr   0.29762   0.70156   0.00569   1.000
    O31     O    0.36631   0.67905   0.86537   1.000
    O32     O    0.36913   0.67996   0.13849   1.000
    O33     O    0.29773   0.53273   0.00239   1.000
    O34     O    0.22887   0.68002   0.14173   1.000
    O35     O    0.22607   0.67802   0.86857   1.000
    O36     O    0.36688   0.72523   0.14537   1.000
    O37     O    0.36872   0.72419   0.87237   1.000
    O38     O    0.29732   0.87035   0.00736   1.000
    O39     O    0.22633   0.72516   0.14302   1.000
    O40     O    0.22826   0.72326   0.86997   1.000
    Zr41    Zr   0.79762   0.70156   0.00569   1.000
    O42     O    0.72606   0.67802   0.86857   1.000
    O43     O    0.72887   0.68002   0.14173   1.000
    O44     O    0.86631   0.67905   0.86537   1.000
    O45     O    0.79773   0.53273   0.00239   1.000
    O46     O    0.86913   0.67996   0.13849   1.000
    O47     O    0.72826   0.72326   0.86997   1.000
    O48     O    0.72633   0.72516   0.14302   1.000
    O49     O    0.86872   0.72419   0.87237   1.000
    O50     O    0.79731   0.87035   0.00736   1.000
    O51     O    0.86688   0.72523   0.14537   1.000
loop_
    _geom_bond_atom_site_label_1
    _geom_bond_atom_site_label_2
    _geom_bond_distance
    _geom_bond_site_symmetry_2
    _ccdc_geom_bond_type
    Zr8    O9        2.72337  1_456   S
    N0     O9        7.11699      .   S
    Zr8    O10       2.72055  1_455   S
    N0     O10       7.10754      .   S
    Zr8    O11       2.72303  1_556   S
    N1     O11       7.11030      .   S
    Zr8    O12       2.71843      .   S
    N1     O12       7.10679      .   S
    Zr8    O13       2.35404      .   S
    N5     O13       4.63128      .   S
    Zr8    O14       2.72194  1_556   S
    N1     O14       7.11157      .   S
    Zr8    O15       2.72242  1_455   S
    N0     O15       7.11025      .   S
    Zr8    O16       2.72480  1_456   S
    N0     O16       7.10879      .   S
    Zr8    O17       2.72310      .   S
    N1     O17       7.10407      .   S
    Zr8    O18       2.35695      .   S
    N5     O18       4.63477  1_565   S
    Zr19   O20       2.72194  1_556   S
    N0     O20       7.11157      .   S
    Zr19   O21       2.72310      .   S
    N0     O21       7.10407      .   S
    Zr19   O22       2.72234      .   S
    N1     O22       7.11011      .   S
    Zr19   O23       2.72472  1_556   S
    N1     O23       7.10865      .   S
    Zr19   O24       2.35695      .   S
    N4     O24       4.63477  1_565   S
    Zr19   O25       2.72303  1_556   S
    N0     O25       7.11030      .   S
    Zr19   O26       2.71843      .   S
    N0     O26       7.10679      .   S
    Zr19   O27       2.72047      .   S
    N1     O27       7.10740      .   S
    Zr19   O28       2.72329  1_556   S
    N1     O28       7.11686      .   S
    Zr19   O29       2.35404      .   S
    N4     O29       4.63127      .   S
    Zr30   O31       2.72279  1_554   S
    N3     O31       7.11002      .   S
    Zr30   O32       2.71839      .   S
    N3     O32       7.10734      .   S
    Zr30   O33       2.35462      .   S
    N6     O33       4.63254      .   S
    Zr30   O34       2.72012      .   S
    N2     O34       7.10706      .   S
    Zr30   O35       2.72363  1_554   S
    N2     O35       7.11741      .   S
    Zr30   O36       2.72335      .   S
    N3     O36       7.10433      .   S
    Zr30   O37       2.72183  1_554   S
    N3     O37       7.11115      .   S
    Zr30   O38       2.35642      .   S
    N6     O38       4.63368  1_545   S
    Zr30   O39       2.72205      .   S
    N2     O39       7.10971      .   S
    Zr30   O40       2.72492  1_554   S
    N2     O40       7.10935      .   S
    Zr41   O42       2.72360  1_554   S
    N3     O42       7.11733      .   S
    Zr41   O43       2.72019      .   S
    N3     O43       7.10690      .   S
    Zr41   O44       2.72282  1_554   S
    N2     O44       7.11010  1_455   S
    Zr41   O45       2.35462      .   S
    N7     O45       4.63255      .   S
    Zr41   O46       2.71842      .   S
    N2     O46       7.10742  1_455   S
    Zr41   O47       2.72490  1_554   S
    N3     O47       7.10928      .   S
    Zr41   O48       2.72203      .   S
    N3     O48       7.10964      .   S
    Zr41   O49       2.72186  1_554   S
    N2     O49       7.11125  1_455   S
    Zr41   O50       2.35642      .   S
    N7     O50       4.63368  1_545   S
    Zr41   O51       2.72338      .   S
    N2     O51       7.10441  1_455   S
