# CIF file generated by openbabel 2.4.90, see http://openbabel.sf.net
data_I
_chemical_name_common ''
_cell_length_a 13.687
_cell_length_b 17.852
_cell_length_c 21.787
_cell_angle_alpha 89.91
_cell_angle_beta 89.977
_cell_angle_gamma 89.998
_space_group_name_H-M_alt 'P 1'
_space_group_name_Hall 'P 1'
loop_
    _symmetry_equiv_pos_as_xyz
    x,y,z
loop_
    _atom_site_label
    _atom_site_type_symbol
    _atom_site_fract_x
    _atom_site_fract_y
    _atom_site_fract_z
    _atom_site_occupancy
    C0      C    0.19415   0.99072   0.12381   1.000
    C1      C    0.28516   0.97572   0.02610   1.000
    C2      C    0.10915   0.94514   0.03083   1.000
    C3      C    0.25834   0.66082   0.99920   1.000
    C4      C    0.08097   0.68585   0.99195   1.000
    C5      C    0.17506   0.73396   0.08066   1.000
    O6      O    0.99601   0.32182   0.46414   1.000
    O7      O    0.82133   0.23126   0.62886   1.000
    C8      C    0.80526   0.01119   0.62361   1.000
    C9      C    0.71239   0.02556   0.52663   1.000
    C10     C    0.88827   0.05699   0.52991   1.000
    C11     C    0.74177   0.34122   0.50014   1.000
    C12     C    0.91886   0.31522   0.49186   1.000
    C13     C    0.82556   0.26807   0.58142   1.000
    C14     C    0.30569   0.49093   0.12381   1.000
    C15     C    0.21398   0.47663   0.02638   1.000
    C16     C    0.38978   0.44535   0.03049   1.000
    C17     C    0.24141   0.16037   0.00000   1.000
    C18     C    0.41854   0.18583   0.99100   1.000
    C19     C    0.32575   0.23566   0.07960   1.000
    C20     C    0.69437   0.51130   0.62364   1.000
    C21     C    0.78706   0.52559   0.52655   1.000
    C22     C    0.61125   0.55708   0.53001   1.000
    C23     C    0.75806   0.84196   0.49958   1.000
    C24     C    0.58112   0.81560   0.49137   1.000
    C25     C    0.67442   0.76893   0.58100   1.000
    N26     N    0.11270   0.96250   0.09333   1.000
    N27     N    0.27847   0.99692   0.08771   1.000
    N28     N    0.19794   0.95143   0.99961   1.000
    N29     N    0.25723   0.69844   0.05561   1.000
    N30     N    0.08782   0.72265   0.04858   1.000
    N31     N    0.16919   0.65871   0.96814   1.000
    N32     N    0.88627   0.03911   0.59239   1.000
    N33     N    0.72046   0.00430   0.58811   1.000
    N34     N    0.79894   0.05032   0.49937   1.000
    N35     N    0.74316   0.30331   0.55638   1.000
    N36     N    0.91254   0.27904   0.54888   1.000
    N37     N    0.83062   0.34307   0.46862   1.000
    N38     N    0.38696   0.46296   0.09295   1.000
    N39     N    0.22117   0.49753   0.08794   1.000
    N40     N    0.30084   0.45195   0.99950   1.000
    N41     N    0.24333   0.19928   0.05591   1.000
    N42     N    0.41282   0.22287   0.04762   1.000
    N43     N    0.32983   0.15833   0.96821   1.000
    N44     N    0.61336   0.53933   0.59251   1.000
    N45     N    0.77910   0.50438   0.58805   1.000
    N46     N    0.70047   0.55028   0.49937   1.000
    N47     N    0.75666   0.80435   0.55596   1.000
    N48     N    0.58748   0.77961   0.54846   1.000
    N49     N    0.66934   0.84336   0.46790   1.000
    O50     O    0.19199   0.00000   0.17787   1.000
    O51     O    0.36217   0.97980   0.99767   1.000
    O52     O    0.03412   0.92495   0.00519   1.000
    O53     O    0.33288   0.63154   0.97916   1.000
    O54     O    0.00332   0.67840   0.96501   1.000
    O55     O    0.17952   0.77121   0.12777   1.000
    O56     O    0.80816   0.99349   0.67780   1.000
    O57     O    0.63482   0.02125   0.49878   1.000
    O58     O    0.96245   0.07799   0.50369   1.000
    O59     O    0.66723   0.37093   0.48039   1.000
    O60     O    0.30811   0.50886   0.17795   1.000
    O61     O    0.13689   0.48121   0.99804   1.000
    O62     O    0.46440   0.42474   0.00400   1.000
    O63     O    0.16668   0.13023   0.98135   1.000
    O64     O    0.49548   0.17841   0.96319   1.000
    O65     O    0.32153   0.27469   0.12578   1.000
    O66     O    0.69158   0.49356   0.67785   1.000
    O67     O    0.86458   0.52130   0.49864   1.000
    O68     O    0.53707   0.57807   0.50382   1.000
    O69     O    0.83259   0.87180   0.47993   1.000
    O70     O    0.50387   0.82206   0.46380   1.000
    O71     O    0.67870   0.73224   0.62855   1.000
loop_
    _geom_bond_atom_site_label_1
    _geom_bond_atom_site_label_2
    _geom_bond_distance
    _geom_bond_site_symmetry_2
    _ccdc_geom_bond_type
    C17    N41       1.40338      .   S
    C17    N43       1.39464  1_554   S
    C17    O63       1.22552  1_554   S
    O62    C16       1.22953      .   S
    O52    C2        1.22367      .   S
    C1     N27       1.39815      .   S
    C1     O51       1.22446  1_554   S
    C1     N28       1.39560  1_554   S
    C15    N39       1.39621      .   S
    C15    O61       1.22538  1_554   S
    C15    N40       1.39660  1_554   S
    C16    N38       1.39765      .   S
    C16    N40       1.39716  1_554   S
    C2     N26       1.39786      .   S
    C2     N28       1.39693  1_554   S
    N42    C19       1.39913      .   S
    N42    C18       1.40267  1_554   S
    N30    C5        1.39869      .   S
    N30    C4        1.40188  1_554   S
    N29    C5        1.40193      .   S
    N29    C3        1.40149  1_554   S
    N41    C19       1.40093      .   S
    C19    O65       1.22611      .   S
    C5     O55       1.22534      .   S
    N27    C0        1.40070      .   S
    N39    C14       1.40109      .   S
    N38    C14       1.39253      .   S
    N26    C0        1.39255      .   S
    C14    O60       1.22313      .   S
    C0     O50       1.19002  1_565   S
    O70    C24       1.22163      .   S
    O6     C12       1.22184      .   S
    N49    C24       1.40133      .   S
    N49    C23       1.39720      .   S
    N37    C12       1.40065      .   S
    N37    C11       1.39663      .   S
    O69    C23       1.22735      .   S
    O59    C11       1.22754      .   S
    C24    N48       1.40186      .   S
    C12    N36       1.40189      .   S
    O67    C21       1.22522      .   S
    O57    C9        1.22549      .   S
    N34    C9        1.39646      .   S
    N34    C10       1.39734      .   S
    N46    C21       1.39608      .   S
    N46    C22       1.39690      .   S
    C23    N47       1.39909      .   S
    C11    N35       1.39900      .   S
    O58    C10       1.22343      .   S
    O68    C22       1.22339      .   S
    C21    N45       1.39600      .   S
    C9     N33       1.39603      .   S
    C10    N32       1.39794      .   S
    C22    N44       1.39790      .   S
    N48    C25       1.39823      .   S
    N36    C13       1.39902      .   S
    N47    C25       1.40104      .   S
    N35    C13       1.40161      .   S
    C25    O71       1.22619      .   S
    C13    O7        1.22527      .   S
    N45    C20       1.40026      .   S
    N33    C8        1.40058      .   S
    N32    C8        1.39241      .   S
    N44    C20       1.39261      .   S
    C8     O56       1.22235  1_545   S
    C20    O66       1.22288      .   S
    O64    C18       1.22198      .   S
    O54    C4        1.22160      .   S
    N31    C4        1.40080      .   S
    N31    C3        1.39609      .   S
    N43    C18       1.40106      .   S
    O53    C3        1.22684      .   S
