# CIF file generated by openbabel 2.4.90, see http://openbabel.sf.net
data_I
_chemical_name_common ''
_cell_length_a 13.687
_cell_length_b 17.852
_cell_length_c 21.787
_cell_angle_alpha 89.91
_cell_angle_beta 89.977
_cell_angle_gamma 89.998
_space_group_name_H-M_alt 'P 1'
_space_group_name_Hall 'P 1'
loop_
    _symmetry_equiv_pos_as_xyz
    x,y,z
loop_
    _atom_site_label
    _atom_site_type_symbol
    _atom_site_fract_x
    _atom_site_fract_y
    _atom_site_fract_z
    _atom_site_occupancy
    Lv0     Lv   0.80189   0.03113   0.56003   1.000
    Lv1     Lv   0.67136   0.80888   0.52406   1.000
    Lv2     Lv   0.32838   0.19396   0.02363   1.000
    Lv3     Lv   0.82856   0.30821   0.52452   1.000
    Lv4     Lv   0.30309   0.47113   0.06012   1.000
    Lv5     Lv   0.17159   0.69351   0.02401   1.000
    Lv6     Lv   0.69765   0.53121   0.56005   1.000
    Lv7     Lv   0.19621   0.96968   0.06024   1.000
