# CIF file generated by openbabel 2.4.90, see http://openbabel.sf.net
data_I
_chemical_name_common ''
_cell_length_a 13.687
_cell_length_b 17.852
_cell_length_c 21.787
_cell_angle_alpha 89.91
_cell_angle_beta 89.977
_cell_angle_gamma 89.998
_space_group_name_H-M_alt 'P 1'
_space_group_name_Hall 'P 1'
loop_
    _symmetry_equiv_pos_as_xyz
    x,y,z
loop_
    _atom_site_label
    _atom_site_type_symbol
    _atom_site_fract_x
    _atom_site_fract_y
    _atom_site_fract_z
    _atom_site_occupancy
    H0      H    0.04338   0.92897   0.17374   1.000
    H1      H    0.97632   0.91404   0.10443   1.000
    H2      H    0.00932   0.06627   0.16684   1.000
    H3      H    0.95691   0.05420   0.09322   1.000
    H4      H    0.34269   0.06058   0.15622   1.000
    H5      H    0.40165   0.06453   0.08267   1.000
    H6      H    0.46216   0.93326   0.09720   1.000
    H7      H    0.40158   0.92969   0.17006   1.000
    H8      H    0.26192   0.96834   0.91478   1.000
    H9      H    0.13094   0.97120   0.91558   1.000
    H10     H    0.25770   0.83064   0.93215   1.000
    H11     H    0.12645   0.83235   0.92558   1.000
    H12     H    0.38393   0.64458   0.08443   1.000
    H13     H    0.32715   0.70301   0.14025   1.000
    H14     H    0.43901   0.75805   0.02565   1.000
    H15     H    0.38007   0.81682   0.07901   1.000
    H16     H    0.95407   0.77720   0.03620   1.000
    H17     H    0.01990   0.80079   0.10397   1.000
    H18     H    0.98223   0.67387   0.14902   1.000
    H19     H    0.91686   0.65009   0.08179   1.000
    H20     H    0.09875   0.58334   0.90992   1.000
    H21     H    0.22869   0.58138   0.90827   1.000
    H22     H    0.10322   0.70824   0.85404   1.000
    H23     H    0.23181   0.70616   0.85568   1.000
    H24     H    0.95673   0.07489   0.67169   1.000
    H25     H    0.02310   0.08717   0.60169   1.000
    H26     H    0.98953   0.93717   0.66790   1.000
    H27     H    0.04197   0.94668   0.59400   1.000
    H28     H    0.65766   0.94011   0.65700   1.000
    H29     H    0.59691   0.93710   0.58413   1.000
    H30     H    0.53809   0.06872   0.59979   1.000
    H31     H    0.59970   0.07084   0.67228   1.000
    H32     H    0.73253   0.03474   0.41521   1.000
    H33     H    0.86336   0.02939   0.41474   1.000
    H34     H    0.74078   0.17210   0.43136   1.000
    H35     H    0.87203   0.16836   0.42530   1.000
    H36     H    0.61637   0.35669   0.58561   1.000
    H37     H    0.67337   0.29760   0.64101   1.000
    H38     H    0.56185   0.24390   0.52606   1.000
    H39     H    0.62067   0.18447   0.57912   1.000
    H40     H    0.04701   0.22575   0.53643   1.000
    H41     H    0.98135   0.20080   0.60405   1.000
    H42     H    0.01674   0.32769   0.64967   1.000
    H43     H    0.08212   0.35272   0.58267   1.000
    H44     H    0.90060   0.41880   0.41020   1.000
    H45     H    0.77063   0.42042   0.40888   1.000
    H46     H    0.89633   0.29401   0.35447   1.000
    H47     H    0.76770   0.29610   0.35607   1.000
    H48     H    0.45681   0.42817   0.17282   1.000
    H49     H    0.52347   0.41453   0.10316   1.000
    H50     H    0.49027   0.56579   0.16712   1.000
    H51     H    0.54297   0.55475   0.09348   1.000
    H52     H    0.15770   0.56143   0.15666   1.000
    H53     H    0.09812   0.56529   0.08336   1.000
    H54     H    0.03755   0.43403   0.09832   1.000
    H55     H    0.09854   0.43066   0.17090   1.000
    H56     H    0.23541   0.46775   0.91506   1.000
    H57     H    0.36627   0.47269   0.91510   1.000
    H58     H    0.24332   0.33021   0.93216   1.000
    H59     H    0.37444   0.33381   0.92532   1.000
    H60     H    0.11803   0.14542   0.08722   1.000
    H61     H    0.17487   0.20664   0.14090   1.000
    H62     H    0.06026   0.25592   0.02569   1.000
    H63     H    0.11858   0.31745   0.07716   1.000
    H64     H    0.54763   0.27552   0.03428   1.000
    H65     H    0.48225   0.30182   0.10154   1.000
    H66     H    0.51683   0.17517   0.14869   1.000
    H67     H    0.58297   0.14950   0.08225   1.000
    H68     H    0.39826   0.08206   0.90971   1.000
    H69     H    0.26827   0.08184   0.90853   1.000
    H70     H    0.39592   0.20744   0.85426   1.000
    H71     H    0.26730   0.20645   0.85588   1.000
    H72     H    0.54289   0.57440   0.67205   1.000
    H73     H    0.47667   0.58763   0.60215   1.000
    H74     H    0.50981   0.43669   0.66706   1.000
    H75     H    0.45712   0.44740   0.59330   1.000
    H76     H    0.84209   0.44057   0.65710   1.000
    H77     H    0.90251   0.43701   0.58406   1.000
    H78     H    0.96130   0.56890   0.59904   1.000
    H79     H    0.90044   0.57117   0.67183   1.000
    H80     H    0.76643   0.53448   0.41500   1.000
    H81     H    0.63554   0.52988   0.41485   1.000
    H82     H    0.75944   0.67189   0.43150   1.000
    H83     H    0.62812   0.66882   0.42565   1.000
    H84     H    0.88341   0.85805   0.58477   1.000
    H85     H    0.82635   0.79965   0.64066   1.000
    H86     H    0.93782   0.74448   0.52609   1.000
    H87     H    0.87902   0.68578   0.57973   1.000
    C88     C    0.43880   0.80515   0.61150   1.000
    C89     C    0.66517   0.88437   0.40890   1.000
    C90     C    0.66675   0.83212   0.35368   1.000
    H91     H    0.45325   0.72600   0.53603   1.000
    H92     H    0.51896   0.70121   0.60364   1.000
    H93     H    0.48291   0.82785   0.64930   1.000
    H94     H    0.41771   0.85294   0.58236   1.000
    H95     H    0.59914   0.91892   0.40949   1.000
    H96     H    0.72912   0.92074   0.40801   1.000
    H97     H    0.60366   0.79416   0.35370   1.000
    H98     H    0.73226   0.79635   0.35523   1.000
    C99     C    0.00000   0.95325   0.12935   1.000
    C100    C    0.96829   0.02695   0.13811   1.000
    C101    C    0.36653   0.02788   0.11651   1.000
    C102    C    0.43792   0.96655   0.13650   1.000
    C103    C    0.19586   0.94176   0.93262   1.000
    C104    C    0.19462   0.85990   0.91202   1.000
    C105    C    0.34850   0.69871   0.09200   1.000
    C106    C    0.41724   0.76253   0.07411   1.000
    C107    C    0.99708   0.75478   0.07432   1.000
    C108    C    0.93851   0.69733   0.11133   1.000
    C109    C    0.16481   0.61782   0.90923   1.000
    C110    C    0.16637   0.67034   0.85407   1.000
    C111    C    0.97664   0.04902   0.62783   1.000
    C112    C    0.03080   0.97543   0.63826   1.000
    C113    C    0.63303   0.97329   0.61776   1.000
    C114    C    0.56254   0.03469   0.63867   1.000
    C115    C    0.79983   0.06006   0.43235   1.000
    C116    C    0.80334   0.14186   0.41159   1.000
    C117    C    0.65196   0.30253   0.59281   1.000
    C118    C    0.58349   0.23881   0.57451   1.000
    C119    C    0.00000   0.24734   0.57463   1.000
    C120    C    0.06105   0.30498   0.61197   1.000
    C121    C    0.83468   0.38415   0.40972   1.000
    C122    C    0.83318   0.33190   0.35450   1.000
    C123    C    0.47705   0.45325   0.12867   1.000
    C124    C    0.53149   0.52688   0.13811   1.000
    C125    C    0.13346   0.52867   0.11709   1.000
    C126    C    0.06210   0.46749   0.13744   1.000
    C127    C    0.30240   0.44223   0.93253   1.000
    C128    C    0.30559   0.36042   0.91190   1.000
    C129    C    0.15267   0.20018   0.09297   1.000
    C130    C    0.08249   0.26256   0.07390   1.000
    C131    C    0.50413   0.25469   0.07280   1.000
    C132    C    0.56146   0.19756   0.11094   1.000
    C133    C    0.33297   0.11742   0.90930   1.000
    C134    C    0.33224   0.17008   0.85423   1.000
    C135    C    0.52298   0.54908   0.62799   1.000
    C136    C    0.46858   0.47544   0.63783   1.000
    C137    C    0.86661   0.47346   0.61760   1.000
    C138    C    0.93727   0.53496   0.63810   1.000
    C139    C    0.69945   0.56014   0.43237   1.000
    C140    C    0.69658   0.64204   0.41175   1.000
    C141    C    0.84780   0.80398   0.59242   1.000
    C142    C    0.91624   0.74003   0.57460   1.000
    C143    C    0.49657   0.74769   0.57423   1.000
loop_
    _geom_bond_atom_site_label_1
    _geom_bond_atom_site_label_2
    _geom_bond_distance
    _geom_bond_site_symmetry_2
    _ccdc_geom_bond_type
    H14    C106      1.09996      .   S
    H62    C130      1.10021      .   S
    H64    C131      1.09344      .   S
    H16    C107      1.09353      .   S
    C131   H65       1.09138      .   S
    C131   C132      1.53108      .   S
    C130   H63       1.09981      .   S
    C130   C129      1.52783      .   S
    C106   H15       1.09999      .   S
    C106   C105      1.52753      .   S
    C107   H17       1.09150  1_655   S
    C107   C108      1.53022      .   S
    H19    C108      1.10233      .   S
    H67    C132      1.10228      .   S
    H5     C101      1.09583      .   S
    H53    C125      1.09562      .   S
    H12    C105      1.09397      .   S
    H60    C129      1.09388      .   S
    C105   H13       1.09379      .   S
    C129   H61       1.09395      .   S
    H3     C100      1.10275      .   S
    H51    C124      1.10279      .   S
    H6     C102      1.09445      .   S
    H54    C126      1.09452      .   S
    H49    C123      1.09150      .   S
    H1     C99       0.94396  1_655   S
    C132   H66       1.09902      .   S
    C108   H18       1.09868      .   S
    C101   C102      1.53018  1_545   S
    C101   H4        1.09413      .   S
    C125   C126      1.53022      .   S
    C125   H52       1.09418      .   S
    C123   C124      1.52517      .   S
    C123   H48       1.09592      .   S
    C99    C100      1.39875  1_465   S
    C99    H0        1.21446      .   S
    C102   H7        1.10143      .   S
    C126   H55       1.10053      .   S
    C124   H50       1.09610      .   S
    C100   H2        1.09622  1_655   S
    C90    H97       1.09763      .   S
    C90    H98       1.10126      .   S
    C90    C89       1.52365      .   S
    H46    C122      1.09760      .   S
    C122   H47       1.10123      .   S
    C122   C121      1.52359      .   S
    H96    C89       1.08999      .   S
    H45    C121      1.08991      .   S
    C89    H95       1.09418      .   S
    C121   H44       1.09402      .   S
    C116   H35       1.09430      .   S
    C116   H34       1.10018      .   S
    C116   C115      1.52889      .   S
    C140   H83       1.09479      .   S
    C140   H82       1.10010      .   S
    C140   C139      1.52934      .   S
    H33    C115      1.09709      .   S
    H81    C139      1.09709      .   S
    H80    C139      1.09256      .   S
    H32    C115      1.09221      .   S
    H38    C118      1.10009      .   S
    H86    C142      1.10001      .   S
    H91    C143      1.09343      .   S
    H40    C119      1.12060      .   S
    C143   H92       1.09153      .   S
    C143   C88       1.52937      .   S
    C118   H39       1.09991      .   S
    C118   C117      1.52738      .   S
    C142   H87       1.09995      .   S
    C142   C141      1.52734      .   S
    C119   H41       1.07905  1_455   S
    C119   C120      1.55622      .   S
    H94    C88       1.10118      .   S
    H43    C120      1.10240      .   S
    H77    C137      1.09549      .   S
    H29    C113      1.09566      .   S
    H84    C141      1.09372      .   S
    H36    C117      1.09377      .   S
    C141   H85       1.09376      .   S
    C117   H37       1.09376      .   S
    H75    C136      1.10365      .   S
    H27    C112      1.10363      .   S
    H78    C138      1.09432      .   S
    H30    C114      1.09426      .   S
    H25    C111      1.09141  1_455   S
    H73    C135      1.09150      .   S
    C88    H93       1.09927      .   S
    C120   H42       1.09884      .   S
    C137   C138      1.53045      .   S
    C137   H76       1.09375      .   S
    C113   C114      1.53001  1_565   S
    C113   H28       1.09271      .   S
    C111   C112      1.52517  1_645   S
    C111   H24       1.09632      .   S
    C135   C136      1.52570      .   S
    C135   H72       1.09618      .   S
    C136   H74       1.09608      .   S
    C138   H79       1.10141      .   S
    C112   H26       1.09585  1_455   S
    C114   H31       1.10150      .   S
    H22    C110      1.09761      .   S
    C110   H23       1.10119      .   S
    C110   C109      1.52323      .   S
    C134   H70       1.09752      .   S
    C134   H71       1.10126      .   S
    C134   C133      1.52310      .   S
    H21    C109      1.08986      .   S
    H69    C133      1.08998      .   S
    C109   H20       1.09395      .   S
    C133   H68       1.09409      .   S
    C128   H59       1.09494      .   S
    C128   H58       1.10043      .   S
    C128   C127      1.52939      .   S
    C104   H11       1.09500      .   S
    C104   H10       1.10012      .   S
    C104   C103      1.52955      .   S
    H8     C103      1.09222      .   S
    H56    C127      1.09222      .   S
    H57    C127      1.09695      .   S
    H9     C103      1.09680      .   S
