# CIF file generated by openbabel 2.4.90, see http://openbabel.sf.net
data_I
_chemical_name_common ''
_cell_length_a 13.687
_cell_length_b 17.852
_cell_length_c 21.787
_cell_angle_alpha 89.91
_cell_angle_beta 89.977
_cell_angle_gamma 89.998
_space_group_name_H-M_alt 'P 1'
_space_group_name_Hall 'P 1'
loop_
    _symmetry_equiv_pos_as_xyz
    x,y,z
loop_
    _atom_site_label
    _atom_site_type_symbol
    _atom_site_fract_x
    _atom_site_fract_y
    _atom_site_fract_z
    _atom_site_occupancy
    C0      C    0.34468   0.77370   0.63877   1.000
    C1      C    0.86779   0.01349   0.16520   1.000
    C2      C    0.52550   0.00000   0.16765   1.000
    C3      C    0.20578   0.85831   0.84247   1.000
    C4      C    0.51079   0.76629   0.11220   1.000
    O5      O    0.47840   0.28512   0.65368   1.000
    O6      O    0.43195   0.18160   0.59992   1.000
    O7      O    0.82017   0.44310   0.29288   1.000
    C8      C    0.84475   0.72929   0.13853   1.000
    C9      C    0.16961   0.62939   0.79299   1.000
    C10     C    0.13148   0.98925   0.66504   1.000
    C11     C    0.47505   0.00041   0.67007   1.000
    C12     C    0.79339   0.14368   0.34198   1.000
    C13     C    0.48982   0.23472   0.61255   1.000
    C14     C    0.15514   0.27363   0.63922   1.000
    C15     C    0.83008   0.37336   0.29360   1.000
    C16     C    0.63195   0.51333   0.16524   1.000
    C17     C    0.97478   0.50203   0.16878   1.000
    C18     C    0.29422   0.35855   0.84238   1.000
    C19     C    0.98915   0.26663   0.11234   1.000
    C20     C    0.65518   0.22939   0.13830   1.000
    C21     C    0.32850   0.12925   0.79313   1.000
    C22     C    0.36809   0.48920   0.66495   1.000
    C23     C    0.02513   0.50069   0.66900   1.000
    C24     C    0.70650   0.64383   0.34210   1.000
    C25     C    0.00996   0.73631   0.61259   1.000
    C26     C    0.66979   0.87324   0.29253   1.000
    O27     O    0.82919   0.95034   0.15741   1.000
    O28     O    0.82815   0.06832   0.19461   1.000
    O29     O    0.51262   0.04748   0.21074   1.000
    O30     O    0.61270   0.98435   0.14952   1.000
    O31     O    0.28735   0.88095   0.82136   1.000
    O32     O    0.13278   0.83520   0.81150   1.000
    O33     O    0.52101   0.71666   0.15430   1.000
    O34     O    0.56980   0.81847   0.09889   1.000
    O35     O    0.17980   0.55971   0.79192   1.000
    O36     O    0.16285   0.67162   0.74420   1.000
    O37     O    0.80398   0.69033   0.18126   1.000
    O38     O    0.81278   0.79041   0.11723   1.000
    O39     O    0.17039   0.05209   0.65586   1.000
    O40     O    0.17078   0.93507   0.69551   1.000
    O41     O    0.48765   0.95277   0.71243   1.000
    O42     O    0.38772   0.01821   0.65280   1.000
    O43     O    0.71207   0.12178   0.32012   1.000
    O44     O    0.86730   0.16649   0.31167   1.000
    O45     O    0.83684   0.33148   0.24474   1.000
    O46     O    0.19584   0.31301   0.68164   1.000
    O47     O    0.18752   0.21254   0.61835   1.000
    O48     O    0.67063   0.45018   0.15736   1.000
    O49     O    0.67150   0.56812   0.19469   1.000
    O50     O    0.98760   0.54985   0.21088   1.000
    O51     O    0.88736   0.48412   0.15184   1.000
    O52     O    0.21268   0.38119   0.82127   1.000
    O53     O    0.36712   0.33512   0.81149   1.000
    O54     O    0.97896   0.21718   0.15450   1.000
    O55     O    0.93011   0.31879   0.09890   1.000
    O56     O    0.31660   0.05973   0.79198   1.000
    O57     O    0.33677   0.17141   0.74439   1.000
    O58     O    0.69569   0.19037   0.18115   1.000
    O59     O    0.68734   0.29052   0.11723   1.000
    O60     O    0.32920   0.55210   0.65606   1.000
    O61     O    0.32894   0.43492   0.69543   1.000
    O62     O    0.01273   0.45346   0.71185   1.000
    O63     O    0.11221   0.51809   0.65109   1.000
    O64     O    0.78796   0.62204   0.32035   1.000
    O65     O    0.63259   0.66636   0.31176   1.000
    O66     O    0.02127   0.78694   0.65354   1.000
    O67     O    0.06800   0.68324   0.60009   1.000
    O68     O    0.67990   0.94293   0.29122   1.000
    O69     O    0.66286   0.83109   0.24384   1.000
    O70     O    0.30364   0.81333   0.68089   1.000
    O71     O    0.31264   0.71237   0.61817   1.000
loop_
    _geom_bond_atom_site_label_1
    _geom_bond_atom_site_label_2
    _geom_bond_distance
    _geom_bond_site_symmetry_2
    _ccdc_geom_bond_type
    O34    C4        1.26622      .   S
    O55    C19       1.26690      .   S
    C4     O33       1.28186      .   S
    C19    O54       1.28062      .   S
    O38    C8        1.26325      .   S
    O59    C20       1.26249      .   S
    C20    O58       1.28944      .   S
    C8     O37       1.28823      .   S
    O30    C2        1.28785  1_565   S
    O51    C17       1.29251      .   S
    O48    C16       1.25745      .   S
    O27    C1        1.25687  1_565   S
    C1     O28       1.29029      .   S
    C16    O49       1.28988      .   S
    C2     O29       1.27795      .   S
    C17    O50       1.26626      .   S
    O69    C26       1.30507      .   S
    O45    C15       1.30504      .   S
    O68    C26       1.25198      .   S
    O7     C15       1.25233      .   S
    O44    C12       1.27433      .   S
    O65    C24       1.27348      .   S
    O43    C12       1.27257      .   S
    O64    C24       1.27245      .   S
    O6     C13       1.26616      .   S
    O67    C25       1.26617      .   S
    C13    O5        1.28040      .   S
    C25    O66       1.28051      .   S
    O71    C0        1.26261      .   S
    O47    C14       1.26246      .   S
    C0     O70       1.28835      .   S
    C14    O46       1.28891      .   S
    O63    C23       1.29166      .   S
    O42    C11       1.29282      .   S
    O39    C10       1.25738  1_545   S
    O60    C22       1.25742      .   S
    C22    O61       1.29024      .   S
    C10    O40       1.28993      .   S
    C23    O62       1.26843      .   S
    C11    O41       1.26587  1_545   S
    O36    C9        1.30551      .   S
    O57    C21       1.30541      .   S
    O35    C9        1.25192      .   S
    O56    C21       1.25203      .   S
    O53    C18       1.27428      .   S
    O32    C3        1.27483      .   S
    O52    C18       1.27284      .   S
    O31    C3        1.27293      .   S
