# CIF file generated by openbabel 2.4.90, see http://openbabel.sf.net
data_I
_chemical_name_common ''
_cell_length_a 13.687
_cell_length_b 17.852
_cell_length_c 21.787
_cell_angle_alpha 89.91
_cell_angle_beta 89.977
_cell_angle_gamma 89.998
_space_group_name_H-M_alt 'P 1'
_space_group_name_Hall 'P 1'
loop_
    _symmetry_equiv_pos_as_xyz
    x,y,z
loop_
    _atom_site_label
    _atom_site_type_symbol
    _atom_site_fract_x
    _atom_site_fract_y
    _atom_site_fract_z
    _atom_site_occupancy
    Cd0     Cd   0.67597   0.05892   0.23460   1.000
    Cd1     Cd   0.85185   0.20114   0.21502   1.000
    Cd2     Cd   0.30271   0.12855   0.64930   1.000
    Cd3     Cd   0.32303   0.94338   0.73579   1.000
    Cd4     Cd   0.14768   0.80182   0.71464   1.000
    Cd5     Cd   0.80282   0.37349   0.14920   1.000
    Cd6     Cd   0.82343   0.55883   0.23526   1.000
    Cd7     Cd   0.64785   0.70091   0.21490   1.000
    Cd8     Cd   0.19685   0.62877   0.64912   1.000
    Cd9     Cd   0.17653   0.44341   0.73548   1.000
    Cd10    Cd   0.35211   0.30146   0.71472   1.000
    Cd11    Cd   0.69727   0.87356   0.14849   1.000
