# CIF file generated by openbabel 2.4.90, see http://openbabel.sf.net
data_I
_chemical_name_common ''
_cell_length_a 13.687
_cell_length_b 17.852
_cell_length_c 21.787
_cell_angle_alpha 89.91
_cell_angle_beta 89.977
_cell_angle_gamma 89.998
_space_group_name_H-M_alt 'P 1'
_space_group_name_Hall 'P 1'
loop_
    _symmetry_equiv_pos_as_xyz
    x,y,z
loop_
    _atom_site_label
    _atom_site_type_symbol
    _atom_site_fract_x
    _atom_site_fract_y
    _atom_site_fract_z
    _atom_site_occupancy
    C0      C    0.34468   0.77370   0.63877   1.000
    C1      C    0.86779   0.01349   0.16520   1.000
    C2      C    0.52550   0.00000   0.16765   1.000
    C3      C    0.20578   0.85831   0.84247   1.000
    C4      C    0.51079   0.76629   0.11220   1.000
    C5      C    0.84475   0.72929   0.13853   1.000
    C6      C    0.16961   0.62939   0.79299   1.000
    C7      C    0.13148   0.98925   0.66504   1.000
    C8      C    0.47505   0.00041   0.67007   1.000
    C9      C    0.79339   0.14368   0.34198   1.000
    C10     C    0.48982   0.23472   0.61255   1.000
    C11     C    0.15514   0.27363   0.63922   1.000
    C12     C    0.83008   0.37336   0.29360   1.000
    C13     C    0.63195   0.51333   0.16524   1.000
    C14     C    0.97478   0.50203   0.16878   1.000
    C15     C    0.29422   0.35855   0.84238   1.000
    C16     C    0.98915   0.26663   0.11234   1.000
    C17     C    0.65518   0.22939   0.13830   1.000
    C18     C    0.32850   0.12925   0.79313   1.000
    C19     C    0.36809   0.48920   0.66495   1.000
    C20     C    0.02513   0.50069   0.66900   1.000
    C21     C    0.70650   0.64383   0.34210   1.000
    C22     C    0.00996   0.73631   0.61259   1.000
    C23     C    0.66979   0.87324   0.29253   1.000
