# CIF file generated by openbabel 2.4.90, see http://openbabel.sf.net
data_I
_chemical_name_common ''
_cell_length_a 13.687
_cell_length_b 17.852
_cell_length_c 21.787
_cell_angle_alpha 89.91
_cell_angle_beta 89.977
_cell_angle_gamma 89.998
_space_group_name_H-M_alt 'P 1'
_space_group_name_Hall 'P 1'
loop_
    _symmetry_equiv_pos_as_xyz
    x,y,z
loop_
    _atom_site_label
    _atom_site_type_symbol
    _atom_site_fract_x
    _atom_site_fract_y
    _atom_site_fract_z
    _atom_site_occupancy
    Zr0     Zr   0.69727   0.87356   0.14849   1.000
    Zr1     Zr   0.67597   0.05892   0.23460   1.000
    Zr2     Zr   0.85185   0.20114   0.21502   1.000
    Zr3     Zr   0.30271   0.12855   0.64930   1.000
    Zr4     Zr   0.32303   0.94338   0.73579   1.000
    Zr5     Zr   0.14768   0.80182   0.71464   1.000
    Zr6     Zr   0.80282   0.37349   0.14920   1.000
    Zr7     Zr   0.82343   0.55883   0.23526   1.000
    Zr8     Zr   0.64785   0.70091   0.21490   1.000
    Zr9     Zr   0.19685   0.62877   0.64912   1.000
    Zr10    Zr   0.17653   0.44341   0.73548   1.000
    Zr11    Zr   0.35211   0.30146   0.71472   1.000
    N12     N    0.80189   0.03113   0.56003   1.000
    N13     N    0.67136   0.80888   0.52406   1.000
    N14     N    0.32838   0.19396   0.02363   1.000
    N15     N    0.82856   0.30821   0.52452   1.000
    N16     N    0.30309   0.47113   0.06012   1.000
    N17     N    0.17159   0.69351   0.02401   1.000
    N18     N    0.69765   0.53121   0.56005   1.000
    N19     N    0.19621   0.96968   0.06024   1.000
    C20     C    0.53387   0.76714   0.12180   1.000
    O21     O    0.58370   0.80658   0.12274   1.000
    O22     O    0.55915   0.73796   0.15320   1.000
    O23     O    0.47860   0.75733   0.10483   1.000
    C24     C    0.79092   0.14398   0.32459   1.000
    O25     O    0.74247   0.11717   0.30098   1.000
    O26     O    0.82525   0.16390   0.29397   1.000
    O27     O    0.79554   0.13296   0.36193   1.000
    C28     C    0.55028   0.01061   0.17597   1.000
    O29     O    0.49609   0.00039   0.15764   1.000
    O30     O    0.60263   0.96978   0.16249   1.000
    C31     C    0.82050   0.73667   0.14567   1.000
    O32     O    0.78776   0.78433   0.13927   1.000
    O33     O    0.87519   0.72808   0.12726   1.000
    O34     O    0.77321   0.71615   0.17188   1.000
    C35     C    0.67941   0.23676   0.14556   1.000
    O36     O    0.72659   0.21626   0.17182   1.000
    O37     O    0.71224   0.28438   0.13939   1.000
    O38     O    0.62492   0.22818   0.12687   1.000
    C39     C    0.82903   0.38265   0.27707   1.000
    O40     O    0.83089   0.36887   0.31513   1.000
    O41     O    0.82541   0.44181   0.27057   1.000
    O42     O    0.82443   0.36757   0.23702   1.000
    O43     O    0.83669   0.32448   0.25348   1.000
    C44     C    0.84171   0.01072   0.17241   1.000
    O45     O    0.79688   0.03717   0.19351   1.000
    O46     O    0.84086   0.07272   0.18861   1.000
    O47     O    0.80247   0.96133   0.16268   1.000
    O48     O    0.89846   0.00807   0.15769   1.000
    C49     C    0.94991   0.51200   0.17717   1.000
    O50     O    0.00404   0.50167   0.15868   1.000
    O51     O    0.89750   0.47040   0.16384   1.000
    C52     C    0.67085   0.88242   0.27586   1.000
    O53     O    0.66900   0.86883   0.31408   1.000
    O54     O    0.67546   0.86737   0.23601   1.000
    O55     O    0.66310   0.82421   0.25262   1.000
    O56     O    0.67439   0.94167   0.26939   1.000
    C57     C    0.70902   0.64407   0.32474   1.000
    O58     O    0.70429   0.63307   0.36206   1.000
    O59     O    0.67462   0.66385   0.29403   1.000
    O60     O    0.75735   0.61725   0.30127   1.000
    C61     C    0.65802   0.51054   0.17243   1.000
    O62     O    0.60036   0.50794   0.15761   1.000
    O63     O    0.70275   0.53701   0.19370   1.000
    O64     O    0.65885   0.57252   0.18861   1.000
    O65     O    0.69737   0.46119   0.16286   1.000
    C66     C    0.96607   0.26753   0.12191   1.000
    O67     O    0.91627   0.30684   0.12298   1.000
    O68     O    0.94074   0.23835   0.15334   1.000
    O69     O    0.02144   0.25776   0.10498   1.000
    C70     C    0.20863   0.85815   0.82511   1.000
    O71     O    0.20301   0.86903   0.86240   1.000
    O72     O    0.25691   0.88516   0.80184   1.000
    O73     O    0.17443   0.83833   0.79409   1.000
    C74     C    0.46672   0.23381   0.62205   1.000
    O75     O    0.44099   0.26355   0.65313   1.000
    O76     O    0.41703   0.19444   0.62333   1.000
    O77     O    0.52201   0.24376   0.60520   1.000
    C78     C    0.17950   0.26639   0.64640   1.000
    O79     O    0.22674   0.28681   0.67229   1.000
    O80     O    0.21231   0.21847   0.64011   1.000
    O81     O    0.12462   0.27466   0.62791   1.000
    C82     C    0.32729   0.12013   0.77650   1.000
    O83     O    0.32936   0.13354   0.81467   1.000
    O84     O    0.32351   0.13505   0.73667   1.000
    O85     O    0.33586   0.17828   0.75303   1.000
    O86     O    0.32355   0.06084   0.77019   1.000
    C87     C    0.05002   0.49074   0.67731   1.000
    O88     O    0.99574   0.50092   0.65903   1.000
    O89     O    0.10228   0.53209   0.66371   1.000
    C90     C    0.32032   0.76646   0.64594   1.000
    O91     O    0.27299   0.78702   0.67185   1.000
    O92     O    0.37510   0.77479   0.62747   1.000
    O93     O    0.28753   0.71852   0.63979   1.000
    C94     C    0.45014   0.99046   0.67843   1.000
    O95     O    0.50427   0.00065   0.65988   1.000
    O96     O    0.39768   0.03192   0.66474   1.000
    C97     C    0.34207   0.49207   0.67215   1.000
    O98     O    0.39971   0.49456   0.65727   1.000
    O99     O    0.30255   0.54125   0.66237   1.000
    O100    O    0.29741   0.46562   0.69380   1.000
    O101    O    0.34130   0.43013   0.68861   1.000
    C102    C    0.29134   0.35828   0.82505   1.000
    O103    O    0.32548   0.33829   0.79408   1.000
    O104    O    0.24297   0.38529   0.80171   1.000
    O105    O    0.29679   0.36931   0.86231   1.000
    C106    C    0.17075   0.62024   0.77637   1.000
    O107    O    0.16878   0.63372   0.81453   1.000
    O108    O    0.17446   0.56090   0.77004   1.000
    O109    O    0.17530   0.63522   0.73652   1.000
    O110    O    0.16301   0.67848   0.75290   1.000
    C111    C    0.15755   0.99214   0.67214   1.000
    O112    O    0.20223   0.96568   0.69389   1.000
    O113    O    0.15839   0.93029   0.68861   1.000
    O114    O    0.19705   0.04123   0.66236   1.000
    O115    O    0.09984   0.99459   0.65737   1.000
    C116    C    0.03308   0.73550   0.62207   1.000
    O117    O    0.05878   0.76494   0.65308   1.000
    O118    O    0.97776   0.74529   0.60520   1.000
    O119    O    0.08275   0.69575   0.62334   1.000
    O120    O    0.91518   0.52495   0.19274   1.000
    O121    O    0.08476   0.47767   0.69289   1.000
    O122    O    0.58479   0.02401   0.19167   1.000
    O123    O    0.41525   0.97745   0.69382   1.000
loop_
    _geom_bond_atom_site_label_1
    _geom_bond_atom_site_label_2
    _geom_bond_distance
    _geom_bond_site_symmetry_2
    _ccdc_geom_bond_type
    C20    O21       0.98055      .   S
    Zr0    O21       2.04058      .   S
    C20    O22       0.92637      .   S
    Zr8    O22       1.92798      .   S
    C20    O23       0.86022      .   S
    N17    O23       4.69763      .   S
    C24    O25       0.96681      .   S
    Zr1    O25       2.00172      .   S
    C24    O26       0.88953      .   S
    Zr2    O26       1.87853      .   S
    C24    O27       0.83914      .   S
    N12    O27       4.68140      .   S
    C28    O29       0.86219      .   S
    N19    O29       4.65415  1_565   S
    C28    O30       1.06371  1_545   S
    Zr0    O30       2.17319      .   S
    C31    O32       0.97143      .   S
    Zr0    O32       2.02796      .   S
    C31    O33       0.86288      .   S
    N17    O33       4.67943  1_455   S
    C31    O34       0.93719      .   S
    Zr8    O34       1.97348      .   S
    C35    O36       0.93704      .   S
    Zr2    O36       1.97442      .   S
    C35    O37       0.97081      .   S
    Zr6    O37       2.02839      .   S
    C35    O38       0.86362      .   S
    N14    O38       4.68169      .   S
    C39    O40       0.86476      .   S
    N15    O40       4.68729      .   S
    C39    O41       1.06647      .   S
    Zr7    O41       2.22531      .   S
    C39    O42       0.91579      .   S
    Zr6    O42       1.93893      .   S
    C39    O43       1.16416      .   S
    Zr2    O43       2.36625      .   S
    C44    O45       0.90065      .   S
    Zr1    O45       1.92127      .   S
    C44    O46       1.16246      .   S
    Zr2    O46       2.36920      .   S
    C44    O47       1.05417  1_545   S
    Zr0    O47       2.15076      .   S
    C44    O48       0.84153      .   S
    N19    O48       4.64574  1_465   S
    C49    O50       0.86316  1_655   S
    N16    O50       4.65385      .   S
    C49    O51       1.07293      .   S
    Zr6    O51       2.18558      .   S
    C52    O53       0.86734      .   S
    N13    O53       4.69678      .   S
    C52    O54       0.91136      .   S
    Zr0    O54       1.93300      .   S
    C52    O55       1.16164      .   S
    Zr8    O55       2.36011      .   S
    C52    O56       1.06800      .   S
    Zr1    O56       2.22504  1_545   S
    C57    O58       0.83878      .   S
    N18    O58       4.67937      .   S
    C57    O59       0.89068      .   S
    Zr8    O59       1.88179      .   S
    C57    O60       0.96377      .   S
    Zr7    O60       1.99441      .   S
    C61    O62       0.85418      .   S
    N16    O62       4.63781      .   S
    C61    O63       0.90201      .   S
    Zr7    O63       1.92415      .   S
    C61    O64       1.16196      .   S
    Zr8    O64       2.36797      .   S
    C61    O65       1.05372      .   S
    Zr6    O65       2.15024      .   S
    C66    O67       0.97852      .   S
    Zr6    O67       2.03822      .   S
    C66    O68       0.92691      .   S
    Zr2    O68       1.92963      .   S
    C66    O69       0.86077  1_655   S
    N14    O69       4.69963      .   S
    C70    O71       0.83904      .   S
    N19    O71       4.67337  1_554   S
    C70    O72       0.96178      .   S
    Zr4    O72       1.99111      .   S
    C70    O73       0.89561      .   S
    Zr5    O73       1.88658      .   S
    C74    O75       0.93016      .   S
    Zr11   O75       1.93394      .   S
    C74    O76       0.97842      .   S
    Zr3    O76       2.03700      .   S
    C74    O77       0.85938      .   S
    N15    O77       4.69109      .   S
    C78    O79       0.93273      .   S
    Zr11   O79       1.96707      .   S
    C78    O80       0.97601      .   S
    Zr3    O80       2.03633      .   S
    C78    O81       0.86512      .   S
    N15    O81       4.67494  1_655   S
    C82    O83       0.86612      .   S
    N14    O83       4.68039  1_554   S
    C82    O84       0.90879      .   S
    Zr3    O84       1.92856      .   S
    C82    O85       1.16242      .   S
    Zr11   O85       2.36122      .   S
    C82    O86       1.06873      .   S
    Zr4    O86       2.22802  1_565   S
    C87    O88       0.86234  1_455   S
    N18    O88       4.64677      .   S
    C87    O89       1.06921      .   S
    Zr9    O89       2.18032      .   S
    C90    O91       0.93451      .   S
    Zr5    O91       1.96971      .   S
    C90    O92       0.86369      .   S
    N13    O92       4.67724      .   S
    C90    O93       0.97594      .   S
    Zr9    O93       2.03655      .   S
    C94    O95       0.86306  1_565   S
    N12    O95       4.64882      .   S
    C94    O96       1.07324  1_565   S
    Zr3    O96       2.18560      .   S
    C97    O98       0.85380      .   S
    N18    O98       4.64039      .   S
    C97    O99       1.05279      .   S
    Zr9    O99       2.14846      .   S
    C97    O100      0.90470      .   S
    Zr10   O100      1.92783      .   S
    C97    O101      1.16202      .   S
    Zr11   O101      2.37021      .   S
    C102   O103      0.89530      .   S
    Zr11   O103      1.88610      .   S
    C102   O104      0.96366      .   S
    Zr10   O104      1.99545      .   S
    C102   O105      0.83905      .   S
    N16    O105      4.68073  1_554   S
    C106   O107      0.86640      .   S
    N17    O107      4.68877  1_554   S
    C106   O108      1.06971      .   S
    Zr10   O108      2.22978      .   S
    C106   O109      0.91026      .   S
    Zr9    O109      1.93028      .   S
    C106   O110      1.16283      .   S
    Zr5    O110      2.36251      .   S
    C111   O112      0.90621      .   S
    Zr4    O112      1.93021      .   S
    C111   O113      1.16043      .   S
    Zr5    O113      2.36619      .   S
    C111   O114      1.05121  1_565   S
    Zr3    O114      2.14497      .   S
    C111   O115      0.85405      .   S
    N12    O115      4.64286  1_645   S
    C116   O117      0.92613      .   S
    Zr5    O117      1.92799      .   S
    C116   O118      0.85968  1_455   S
    N13    O118      4.69034      .   S
    C116   O119      0.98306      .   S
    Zr9    O119      2.04520      .   S
    Zr7    O120      1.67390      .   S
    C49    O120      0.62819      .   S
    C87    O121      0.62904      .   S
    Zr10   O121      1.67682      .   S
    C28    O122      0.63074      .   S
    Zr1    O122      1.68023      .   S
    C94    O123      0.62771      .   S
    Zr4    O123      1.67230      .   S
