# CIF file generated by openbabel 2.4.90, see http://openbabel.sf.net
data_I
_chemical_name_common ''
_cell_length_a 19.797
_cell_length_b 19.8
_cell_length_c 15.418
_cell_angle_alpha 74.151
_cell_angle_beta 74.164
_cell_angle_gamma 82.483
_space_group_name_H-M_alt 'P 1'
_space_group_name_Hall 'P 1'
loop_
    _symmetry_equiv_pos_as_xyz
    x,y,z
loop_
    _atom_site_label
    _atom_site_type_symbol
    _atom_site_fract_x
    _atom_site_fract_y
    _atom_site_fract_z
    _atom_site_occupancy
    P0      P    0.43816   0.32215   0.07900   1.000
    P1      P    0.43816   0.82214   0.07900   1.000
    P2      P    0.93816   0.32215   0.07900   1.000
    P3      P    0.93816   0.82214   0.07900   1.000
    P4      P    0.15757   0.46842   0.12571   1.000
    P5      P    0.15757   0.96841   0.12571   1.000
    P6      P    0.65757   0.46842   0.12571   1.000
    P7      P    0.65757   0.96841   0.12571   1.000
    P8      P    0.39431   0.02094   0.16895   1.000
    P9      P    0.39431   0.52093   0.16895   1.000
    P10     P    0.89431   0.02094   0.16895   1.000
    P11     P    0.89431   0.52093   0.16895   1.000
    P12     P    0.17782   0.06184   0.42105   1.000
    P13     P    0.17782   0.56183   0.42105   1.000
    P14     P    0.67782   0.06184   0.42105   1.000
    P15     P    0.67782   0.56183   0.42105   1.000
    P16     P    0.03157   0.34243   0.37433   1.000
    P17     P    0.03157   0.84242   0.37433   1.000
    P18     P    0.53157   0.34243   0.37433   1.000
    P19     P    0.53157   0.84242   0.37433   1.000
    P20     P    0.47908   0.10568   0.33101   1.000
    P21     P    0.47908   0.60568   0.33101   1.000
    P22     P    0.97908   0.10568   0.33101   1.000
    P23     P    0.97909   0.60568   0.33101   1.000
    P24     P    0.06185   0.17785   0.92101   1.000
    P25     P    0.06186   0.67785   0.92101   1.000
    P26     P    0.56186   0.17785   0.92101   1.000
    P27     P    0.56186   0.67785   0.92101   1.000
    P28     P    0.34244   0.03158   0.87430   1.000
    P29     P    0.34244   0.53158   0.87430   1.000
    P30     P    0.84244   0.03158   0.87430   1.000
    P31     P    0.84245   0.53158   0.87430   1.000
    P32     P    0.10570   0.47906   0.83106   1.000
    P33     P    0.10570   0.97906   0.83106   1.000
    P34     P    0.60570   0.47906   0.83106   1.000
    P35     P    0.60571   0.97906   0.83106   1.000
    P36     P    0.32219   0.43816   0.57896   1.000
    P37     P    0.32219   0.93815   0.57896   1.000
    P38     P    0.82219   0.43816   0.57896   1.000
    P39     P    0.82220   0.93815   0.57896   1.000
    P40     P    0.46844   0.15757   0.62567   1.000
    P41     P    0.46844   0.65757   0.62567   1.000
    P42     P    0.96844   0.15757   0.62567   1.000
    P43     P    0.96845   0.65757   0.62567   1.000
    P44     P    0.02093   0.39431   0.66899   1.000
    P45     P    0.02093   0.89431   0.66899   1.000
    P46     P    0.52093   0.39431   0.66899   1.000
    P47     P    0.52093   0.89431   0.66899   1.000
    O48     O    0.10586   0.41950   0.11814   1.000
    O49     O    0.10586   0.91949   0.11814   1.000
    O50     O    0.60586   0.41950   0.11814   1.000
    O51     O    0.60587   0.91949   0.11814   1.000
    O52     O    0.57398   0.75682   0.88528   1.000
    O53     O    0.15995   0.49375   0.87720   1.000
    O54     O    0.15996   0.99375   0.87728   1.000
    O55     O    0.65996   0.49375   0.87728   1.000
    O56     O    0.42603   0.24317   0.11473   1.000
    O57     O    0.42604   0.74317   0.11473   1.000
    O58     O    0.92604   0.24317   0.11473   1.000
    O59     O    0.92604   0.74317   0.11473   1.000
    O60     O    0.34006   0.00624   0.12272   1.000
    O61     O    0.34006   0.50624   0.12272   1.000
    O62     O    0.84006   0.00625   0.12272   1.000
    O63     O    0.84006   0.50624   0.12272   1.000
    O64     O    0.12704   0.49842   0.21167   1.000
    O65     O    0.12704   0.99841   0.21160   1.000
    O66     O    0.62704   0.49842   0.21160   1.000
    O67     O    0.62704   0.99841   0.21160   1.000
    O68     O    0.40457   0.10055   0.13711   1.000
    O69     O    0.40457   0.60055   0.13711   1.000
    O70     O    0.90457   0.10055   0.13711   1.000
    O71     O    0.90457   0.60055   0.13711   1.000
    O72     O    0.49576   0.33880   0.11938   1.000
    O73     O    0.49577   0.83880   0.11938   1.000
    O74     O    0.99577   0.33880   0.11930   1.000
    O75     O    0.99577   0.83880   0.11938   1.000
    O76     O    0.36698   0.49716   0.27577   1.000
    O77     O    0.36698   0.99716   0.27577   1.000
    O78     O    0.86698   0.49716   0.27577   1.000
    O79     O    0.86698   0.99716   0.27577   1.000
    O80     O    0.22745   0.42506   0.13307   1.000
    O81     O    0.22746   0.92505   0.13307   1.000
    O82     O    0.72746   0.42506   0.13307   1.000
    O83     O    0.72746   0.92505   0.13307   1.000
    O84     O    0.10055   0.40456   0.63720   1.000
    O85     O    0.10056   0.90456   0.63720   1.000
    O86     O    0.60056   0.40456   0.63720   1.000
    O87     O    0.60056   0.90456   0.63720   1.000
    O88     O    0.33882   0.49577   0.61932   1.000
    O89     O    0.17011   0.03148   0.03990   1.000
    O90     O    0.17011   0.53148   0.03990   1.000
    O91     O    0.67011   0.03148   0.03990   1.000
    O92     O    0.67011   0.53148   0.03990   1.000
    O93     O    0.46552   0.48061   0.13850   1.000
    O94     O    0.46553   0.98061   0.13850   1.000
    O95     O    0.96553   0.48061   0.13850   1.000
    O96     O    0.96553   0.98061   0.13850   1.000
    O97     O    0.36810   0.36267   0.11164   1.000
    O98     O    0.36811   0.86266   0.11164   1.000
    O99     O    0.86811   0.36267   0.11164   1.000
    O100    O    0.86811   0.86266   0.11164   1.000
    O101    O    0.46128   0.34314   0.97175   1.000
    O102    O    0.46128   0.84314   0.97175   1.000
    O103    O    0.96128   0.34314   0.97175   1.000
    O104    O    0.96129   0.84314   0.97175   1.000
    O105    O    0.08050   0.39412   0.38190   1.000
    O106    O    0.08050   0.89412   0.38190   1.000
    O107    O    0.58050   0.39412   0.38190   1.000
    O108    O    0.58050   0.89412   0.38190   1.000
    O109    O    0.25681   0.07393   0.38540   1.000
    O110    O    0.25681   0.57393   0.38540   1.000
    O111    O    0.75681   0.07393   0.38540   1.000
    O112    O    0.75682   0.57393   0.38540   1.000
    O113    O    0.49377   0.15995   0.37720   1.000
    O114    O    0.49377   0.65994   0.37720   1.000
    O115    O    0.99377   0.15995   0.37720   1.000
    O116    O    0.99377   0.65994   0.37720   1.000
    O117    O    0.00153   0.37298   0.28839   1.000
    O118    O    0.00153   0.87298   0.28839   1.000
    O119    O    0.50153   0.37298   0.28839   1.000
    O120    O    0.50153   0.87298   0.28839   1.000
    O121    O    0.39946   0.09544   0.36281   1.000
    O122    O    0.39946   0.59543   0.36281   1.000
    O123    O    0.89946   0.09544   0.36281   1.000
    O124    O    0.89946   0.59543   0.36281   1.000
    O125    O    0.16119   0.00423   0.38068   1.000
    O126    O    0.16119   0.50423   0.38068   1.000
    O127    O    0.66119   0.00423   0.38068   1.000
    O128    O    0.66120   0.50423   0.38068   1.000
    O129    O    0.00288   0.13297   0.22410   1.000
    O130    O    0.00288   0.63296   0.22410   1.000
    O131    O    0.50288   0.13297   0.22410   1.000
    O132    O    0.50288   0.63296   0.22410   1.000
    O133    O    0.07493   0.27256   0.36693   1.000
    O134    O    0.07493   0.77255   0.36693   1.000
    O135    O    0.57493   0.27256   0.36693   1.000
    O136    O    0.57494   0.77255   0.36693   1.000
    O137    O    0.46853   0.32987   0.46015   1.000
    O138    O    0.46853   0.82987   0.46015   1.000
    O139    O    0.96853   0.32987   0.46015   1.000
    O140    O    0.96853   0.82987   0.46015   1.000
    O141    O    0.01938   0.03447   0.36153   1.000
    O142    O    0.01939   0.53446   0.36153   1.000
    O143    O    0.51939   0.03447   0.36153   1.000
    O144    O    0.51939   0.53446   0.36153   1.000
    O145    O    0.13733   0.13190   0.38830   1.000
    O146    O    0.13733   0.63190   0.38830   1.000
    O147    O    0.63733   0.13190   0.38830   1.000
    O148    O    0.63733   0.63190   0.38830   1.000
    O149    O    0.15674   0.03876   0.52832   1.000
    O150    O    0.15674   0.53875   0.52832   1.000
    O151    O    0.65675   0.03876   0.52832   1.000
    O152    O    0.65675   0.53875   0.52832   1.000
    O153    O    0.39415   0.08050   0.88186   1.000
    O154    O    0.39415   0.58049   0.88186   1.000
    O155    O    0.89415   0.08050   0.88186   1.000
    O156    O    0.89416   0.58049   0.88186   1.000
    O157    O    0.07398   0.25683   0.88528   1.000
    O158    O    0.07398   0.75682   0.88528   1.000
    O159    O    0.57398   0.25683   0.88528   1.000
    O160    O    0.65996   0.99375   0.87720   1.000
    O161    O    0.37297   0.00158   0.78834   1.000
    O162    O    0.37298   0.50157   0.78834   1.000
    O163    O    0.87297   0.00158   0.78834   1.000
    O164    O    0.87298   0.50157   0.78834   1.000
    O165    O    0.09544   0.39944   0.86200   1.000
    O166    O    0.09544   0.89944   0.86200   1.000
    O167    O    0.59545   0.39944   0.86200   1.000
    O168    O    0.59545   0.89944   0.86200   1.000
    O169    O    0.00424   0.16120   0.88063   1.000
    O170    O    0.00425   0.66119   0.88063   1.000
    O171    O    0.50425   0.16120   0.88063   1.000
    O172    O    0.50425   0.66119   0.88063   1.000
    O173    O    0.13303   0.00284   0.72424   1.000
    O174    O    0.13303   0.50283   0.72424   1.000
    O175    O    0.63303   0.00284   0.72424   1.000
    O176    O    0.63304   0.50283   0.72424   1.000
    O177    O    0.27256   0.07494   0.86694   1.000
    O178    O    0.27256   0.57494   0.86694   1.000
    O179    O    0.77256   0.07494   0.86694   1.000
    O180    O    0.77256   0.57494   0.86694   1.000
    O181    O    0.32990   0.46851   0.96011   1.000
    O182    O    0.32990   0.96851   0.96011   1.000
    O183    O    0.82990   0.46852   0.96011   1.000
    O184    O    0.82991   0.96851   0.96011   1.000
    O185    O    0.03449   0.01938   0.86150   1.000
    O186    O    0.03449   0.51938   0.86150   1.000
    O187    O    0.53449   0.01938   0.86150   1.000
    O188    O    0.53449   0.51938   0.86150   1.000
    O189    O    0.13190   0.13733   0.88837   1.000
    O190    O    0.13191   0.63732   0.88837   1.000
    O191    O    0.63191   0.13733   0.88837   1.000
    O192    O    0.63191   0.63732   0.88837   1.000
    O193    O    0.03873   0.15685   0.02826   1.000
    O194    O    0.03873   0.65685   0.02826   1.000
    O195    O    0.53873   0.15685   0.02826   1.000
    O196    O    0.53873   0.65685   0.02826   1.000
    O197    O    0.41951   0.10587   0.61811   1.000
    O198    O    0.41951   0.60587   0.61811   1.000
    O199    O    0.91951   0.10587   0.61811   1.000
    O200    O    0.91952   0.60587   0.61811   1.000
    O201    O    0.24320   0.42606   0.61461   1.000
    O202    O    0.24320   0.92606   0.61460   1.000
    O203    O    0.74320   0.42606   0.61460   1.000
    O204    O    0.74321   0.92606   0.61461   1.000
    O205    O    0.00624   0.34005   0.62280   1.000
    O206    O    0.00625   0.84004   0.62280   1.000
    O207    O    0.50625   0.34005   0.62280   1.000
    O208    O    0.50625   0.84005   0.62280   1.000
    O209    O    0.49848   0.12701   0.71162   1.000
    O210    O    0.49848   0.62701   0.71162   1.000
    O211    O    0.99848   0.12701   0.71162   1.000
    O212    O    0.99849   0.62701   0.71162   1.000
    O213    O    0.33882   0.99576   0.61930   1.000
    O214    O    0.83882   0.49577   0.61930   1.000
    O215    O    0.83883   0.99576   0.61932   1.000
    O216    O    0.49713   0.36703   0.77582   1.000
    O217    O    0.49714   0.86702   0.77582   1.000
    O218    O    0.99714   0.36703   0.77582   1.000
    O219    O    0.99714   0.86702   0.77582   1.000
    O220    O    0.42508   0.22744   0.63300   1.000
    O221    O    0.42508   0.72743   0.63300   1.000
    O222    O    0.92508   0.22744   0.63300   1.000
    O223    O    0.92508   0.72743   0.63300   1.000
    O224    O    0.03148   0.17013   0.53986   1.000
    O225    O    0.03148   0.67012   0.53986   1.000
    O226    O    0.53148   0.17013   0.53986   1.000
    O227    O    0.53149   0.67012   0.53986   1.000
    O228    O    0.48063   0.46553   0.63848   1.000
    O229    O    0.48063   0.96552   0.63848   1.000
    O230    O    0.98063   0.46553   0.63848   1.000
    O231    O    0.98063   0.96552   0.63848   1.000
    O232    O    0.36268   0.36810   0.61168   1.000
    O233    O    0.36269   0.86809   0.61168   1.000
    O234    O    0.86269   0.36810   0.61168   1.000
    O235    O    0.86269   0.86809   0.61168   1.000
    O236    O    0.34327   0.46124   0.47169   1.000
    O237    O    0.34327   0.96123   0.47169   1.000
    O238    O    0.84327   0.46124   0.47169   1.000
    O239    O    0.84327   0.96123   0.47169   1.000
loop_
    _geom_bond_atom_site_label_1
    _geom_bond_atom_site_label_2
    _geom_bond_distance
    _geom_bond_site_symmetry_2
    _ccdc_geom_bond_type
    O193   P24       1.54204  1_554   S
    O194   P25       1.54205  1_554   S
    O195   P26       1.54205  1_554   S
    O196   P27       1.54204  1_554   S
    O89    P5        1.53979  1_545   S
    O90    P4        1.53967      .   S
    O91    P7        1.53979  1_545   S
    O92    P6        1.53967      .   S
    P0     O97       1.53909      .   S
    P0     O56       1.53681      .   S
    P0     O72       1.54761      .   S
    P0     O101      1.54205  1_554   S
    P3     O100      1.53909      .   S
    P3     O59       1.53681      .   S
    P3     O75       1.54759      .   S
    P3     O104      1.54205  1_554   S
    P2     O99       1.53909      .   S
    P2     O58       1.53681      .   S
    P2     O74       1.54679      .   S
    P2     O103      1.54205  1_554   S
    P1     O98       1.53909      .   S
    P1     O57       1.53681      .   S
    P1     O73       1.54759      .   S
    P1     O102      1.54204  1_554   S
    O51    P7        1.54469      .   S
    O49    P5        1.54469      .   S
    O50    P6        1.54470      .   S
    O48    P4        1.54469      .   S
    O63    P11       1.53591      .   S
    O62    P10       1.53590      .   S
    O61    P9        1.53590      .   S
    O60    P8        1.53591      .   S
    P7     O83       1.54460      .   S
    P7     O67       1.53974      .   S
    P6     O82       1.54458      .   S
    P6     O66       1.53974      .   S
    P5     O81       1.54460      .   S
    P5     O65       1.53974      .   S
    P4     O80       1.54460      .   S
    P4     O64       1.54066      .   S
    O70    P10       1.54076      .   S
    O68    P8        1.54076      .   S
    O69    P9        1.54076      .   S
    O71    P11       1.54076      .   S
    O96    P10       1.54752  1_565   S
    O95    P11       1.54735      .   S
    O94    P8        1.54752  1_565   S
    O93    P9        1.54735      .   S
    P11    O78       1.54390      .   S
    P10    O79       1.54390  1_545   S
    P9     O76       1.54390      .   S
    P8     O77       1.54390  1_545   S
    O130   P23       1.54505  1_455   S
    O129   P22       1.54505  1_455   S
    O132   P21       1.54506      .   S
    O131   P20       1.54506      .   S
    O120   P19       1.54060      .   S
    O119   P18       1.54062      .   S
    O118   P17       1.54060      .   S
    O117   P16       1.54062      .   S
    P23    O142      1.54734  1_655   S
    P23    O124      1.54081      .   S
    P23    O116      1.53582      .   S
    P22    O141      1.54734  1_655   S
    P22    O123      1.54079      .   S
    P22    O115      1.53580      .   S
    P21    O144      1.54740      .   S
    P21    O122      1.54081      .   S
    P21    O114      1.53579      .   S
    P20    O143      1.54740      .   S
    P20    O121      1.54079      .   S
    P20    O113      1.53582      .   S
    O135   P18       1.54456      .   S
    O134   P17       1.54457      .   S
    O133   P16       1.54456      .   S
    O136   P19       1.54457      .   S
    P17    O106      1.54469      .   S
    P17    O140      1.53956  1_455   S
    P16    O105      1.54469      .   S
    P16    O139      1.53957  1_455   S
    P18    O107      1.54469      .   S
    P18    O137      1.53964      .   S
    P19    O108      1.54469      .   S
    P19    O138      1.53965      .   S
    O128   P15       1.54751      .   S
    O127   P14       1.54752      .   S
    O126   P13       1.54751      .   S
    O125   P12       1.54751      .   S
    O109   P12       1.53683      .   S
    O110   P13       1.53684      .   S
    O111   P14       1.53684      .   S
    O112   P15       1.53684      .   S
    O148   P15       1.53922      .   S
    O147   P14       1.53922      .   S
    O146   P13       1.53922      .   S
    O145   P12       1.53923      .   S
    P12    O149      1.54231      .   S
    P13    O150      1.54231      .   S
    P14    O151      1.54231      .   S
    P15    O152      1.54231      .   S
    O239   P39       1.54231      .   S
    O238   P38       1.54231      .   S
    O237   P37       1.54231      .   S
    O236   P36       1.54231      .   S
    O226   P40       1.53955      .   S
    O225   P43       1.53948  1_455   S
    O224   P42       1.53948  1_455   S
    O227   P41       1.53955      .   S
    P38    O234      1.53912      .   S
    P38    O203      1.53684      .   S
    P38    O214      1.54720      .   S
    P37    O233      1.53912      .   S
    P37    O202      1.53684      .   S
    P37    O213      1.54720      .   S
    P36    O232      1.53912      .   S
    P36    O201      1.53684      .   S
    P36    O88       1.54741      .   S
    P39    O235      1.53912      .   S
    P39    O204      1.53684      .   S
    P39    O215      1.54741      .   S
    O199   P42       1.54463      .   S
    O197   P40       1.54461      .   S
    O200   P43       1.54461      .   S
    O198   P41       1.54463      .   S
    O208   P47       1.53579      .   S
    O207   P46       1.53582      .   S
    O206   P45       1.53582      .   S
    O205   P44       1.53580      .   S
    P40    O220      1.54440      .   S
    P40    O209      1.54075      .   S
    P41    O221      1.54440      .   S
    P41    O210      1.54073      .   S
    P42    O222      1.54438      .   S
    P42    O211      1.54075      .   S
    P43    O223      1.54439      .   S
    P43    O212      1.54075      .   S
    O87    P47       1.54081      .   S
    O84    P44       1.54079      .   S
    O85    P45       1.54081      .   S
    O86    P46       1.54079      .   S
    O231   P45       1.54730  1_655   S
    O230   P44       1.54731  1_655   S
    O229   P47       1.54737      .   S
    O228   P46       1.54735      .   S
    P46    O216      1.54396      .   S
    P47    O217      1.54396      .   S
    P45    O219      1.54396  1_455   S
    P44    O218      1.54396  1_455   S
    O173   P33       1.54390  1_545   S
    O174   P32       1.54390      .   S
    O175   P35       1.54390  1_545   S
    O176   P34       1.54390      .   S
    O163   P30       1.54066      .   S
    O161   P28       1.54066      .   S
    O162   P29       1.54066      .   S
    O164   P31       1.54066      .   S
    P33    O185      1.54749  1_565   S
    P33    O166      1.54078      .   S
    P33    O54       1.53579      .   S
    P32    O186      1.54732      .   S
    P32    O165      1.54078      .   S
    P32    O53       1.53492      .   S
    P34    O188      1.54732      .   S
    P34    O167      1.54077      .   S
    P34    O55       1.53579      .   S
    P35    O187      1.54748  1_565   S
    P35    O168      1.54077      .   S
    P35    O160      1.53492      .   S
    O180   P31       1.54460      .   S
    O177   P28       1.54458      .   S
    O179   P30       1.54458      .   S
    O178   P29       1.54460      .   S
    P31    O156      1.54462      .   S
    P31    O183      1.53967      .   S
    P30    O155      1.54464      .   S
    P30    O184      1.53980  1_545   S
    P29    O154      1.54462      .   S
    P29    O181      1.53968      .   S
    P28    O153      1.54464      .   S
    P28    O182      1.53979  1_545   S
    O170   P25       1.54758      .   S
    O172   P27       1.54760      .   S
    O171   P26       1.54761      .   S
    O169   P24       1.54759      .   S
    O158   P25       1.53681      .   S
    O157   P24       1.53679      .   S
    O159   P26       1.53679      .   S
    O52    P27       1.53681      .   S
    O192   P27       1.53908      .   S
    O189   P24       1.53910      .   S
    O190   P25       1.53909      .   S
    O191   P26       1.53909      .   S
