# CIF file generated by openbabel 2.4.90, see http://openbabel.sf.net
data_I
_chemical_name_common ''
_cell_length_a 13.019
_cell_length_b 12.951
_cell_length_c 21.117
_cell_angle_alpha 85.765
_cell_angle_beta 85.797
_cell_angle_gamma 69.843
_space_group_name_H-M_alt 'P 1'
_space_group_name_Hall 'P 1'
loop_
    _symmetry_equiv_pos_as_xyz
    x,y,z
loop_
    _atom_site_label
    _atom_site_type_symbol
    _atom_site_fract_x
    _atom_site_fract_y
    _atom_site_fract_z
    _atom_site_occupancy
    H0      H    0.86784   0.14289   0.09728   1.000
    H1      H    0.73902   0.46564   0.22525   1.000
    H2      H    0.90532   0.29885   0.25473   1.000
    H3      H    0.22863   0.21877   0.31434   1.000
    H4      H    0.82122   0.10421   0.91384   1.000
    H5      H    0.06761   0.04118   0.44357   1.000
    H6      H    0.24660   0.22672   0.51653   1.000
    H7      H    0.68471   0.11347   0.74033   1.000
    H8      H    0.52508   0.28300   0.77172   1.000
    H9      H    0.85669   0.13236   0.40264   1.000
    H10     H    0.53535   0.26005   0.27476   1.000
    H11     H    0.70226   0.09427   0.24492   1.000
    H12     H    0.78240   0.77017   0.18559   1.000
    H13     H    0.89576   0.17913   0.58595   1.000
    H14     H    0.95969   0.93138   0.05640   1.000
    H15     H    0.77322   0.75343   0.98338   1.000
    H16     H    0.88645   0.31648   0.75930   1.000
    H17     H    0.71633   0.47564   0.72840   1.000
    H18     H    0.13218   0.85709   0.90270   1.000
    H19     H    0.26100   0.53433   0.77473   1.000
    H20     H    0.09469   0.70112   0.74525   1.000
    H21     H    0.77140   0.78121   0.68564   1.000
    H22     H    0.17881   0.89577   0.08614   1.000
    H23     H    0.93243   0.95880   0.55641   1.000
    H24     H    0.75344   0.77326   0.48345   1.000
    H25     H    0.31533   0.88652   0.25960   1.000
    H26     H    0.47495   0.71698   0.22820   1.000
    H27     H    0.14335   0.86761   0.59733   1.000
    H28     H    0.46469   0.73990   0.72522   1.000
    H29     H    0.29777   0.90569   0.75506   1.000
    H30     H    0.21764   0.22979   0.81438   1.000
    H31     H    0.10428   0.82084   0.41403   1.000
    H32     H    0.04034   0.06860   0.94358   1.000
    H33     H    0.22681   0.24656   0.01660   1.000
    H34     H    0.11360   0.68350   0.24060   1.000
    H35     H    0.28372   0.52434   0.27155   1.000
    C36     C    0.83757   0.21333   0.12724   1.000
    C37     C    0.76649   0.39190   0.19791   1.000
    C38     C    0.85753   0.30082   0.21409   1.000
    C39     C    0.74775   0.30592   0.11024   1.000
    C40     C    0.20859   0.19357   0.36264   1.000
    C41     C    0.14459   0.12537   0.37282   1.000
    C42     C    0.75557   0.14405   0.88154   1.000
    C43     C    0.66818   0.23852   0.89851   1.000
    C44     C    0.15308   0.13210   0.48689   1.000
    C45     C    0.11755   0.09376   0.43509   1.000
    C46     C    0.21841   0.19825   0.47617   1.000
    C47     C    0.24719   0.22872   0.41423   1.000
    C48     C    0.67962   0.14982   0.78590   1.000
    C49     C    0.59267   0.24402   0.80275   1.000
    C50     C    0.78653   0.16235   0.37270   1.000
    C51     C    0.60871   0.23282   0.30210   1.000
    C52     C    0.69992   0.14205   0.28573   1.000
    C53     C    0.69383   0.25181   0.38994   1.000
    C54     C    0.80737   0.79039   0.13729   1.000
    C55     C    0.87582   0.85412   0.12713   1.000
    C56     C    0.85574   0.24483   0.61833   1.000
    C57     C    0.76090   0.33186   0.60165   1.000
    C58     C    0.86833   0.84641   0.01305   1.000
    C59     C    0.90705   0.88151   0.06480   1.000
    C60     C    0.80198   0.78129   0.02376   1.000
    C61     C    0.77166   0.75236   0.08570   1.000
    C62     C    0.84994   0.32126   0.71393   1.000
    C63     C    0.75543   0.40790   0.69730   1.000
    C64     C    0.16245   0.78664   0.87270   1.000
    C65     C    0.23353   0.60807   0.80207   1.000
    C66     C    0.14249   0.69915   0.78589   1.000
    C67     C    0.25227   0.69406   0.88974   1.000
    C68     C    0.79144   0.80641   0.63730   1.000
    C69     C    0.85544   0.87462   0.62715   1.000
    C70     C    0.24446   0.85593   0.11844   1.000
    C71     C    0.33185   0.76146   0.10146   1.000
    C72     C    0.84696   0.86788   0.51309   1.000
    C73     C    0.88249   0.90621   0.56489   1.000
    C74     C    0.78163   0.80172   0.52381   1.000
    C75     C    0.75285   0.77127   0.58575   1.000
    C76     C    0.32041   0.85016   0.21407   1.000
    C77     C    0.40736   0.75596   0.19722   1.000
    C78     C    0.21351   0.83761   0.62728   1.000
    C79     C    0.39132   0.76714   0.69780   1.000
    C80     C    0.30012   0.85791   0.71425   1.000
    C81     C    0.30621   0.74815   0.61004   1.000
    C82     C    0.19266   0.20959   0.86260   1.000
    C83     C    0.12422   0.14586   0.87280   1.000
    C84     C    0.14431   0.75514   0.38164   1.000
    C85     C    0.23915   0.66811   0.39832   1.000
    C86     C    0.13169   0.15359   0.98692   1.000
    C87     C    0.09298   0.11847   0.93511   1.000
    C88     C    0.19805   0.21870   0.97622   1.000
    C89     C    0.22837   0.24763   0.91428   1.000
    C90     C    0.15010   0.67872   0.28604   1.000
    C91     C    0.24461   0.59208   0.30264   1.000
    N92     N    0.89193   0.21122   0.17888   1.000
    N93     N    0.71082   0.39468   0.14600   1.000
    N94     N    0.76124   0.10030   0.82540   1.000
    N95     N    0.58713   0.28967   0.85862   1.000
    N96     N    0.78915   0.10795   0.32089   1.000
    N97     N    0.60542   0.28850   0.35392   1.000
    N98     N    0.89962   0.23956   0.67429   1.000
    N99     N    0.70962   0.41300   0.64164   1.000
    N100    N    0.10809   0.78875   0.82110   1.000
    N101    N    0.28920   0.60530   0.85368   1.000
    N102    N    0.23879   0.89969   0.17454   1.000
    N103    N    0.41290   0.71031   0.14136   1.000
    N104    N    0.21088   0.89201   0.67908   1.000
    N105    N    0.39461   0.71146   0.64606   1.000
    N106    N    0.10043   0.76041   0.32569   1.000
    N107    N    0.29042   0.58698   0.35830   1.000
loop_
    _geom_bond_atom_site_label_1
    _geom_bond_atom_site_label_2
    _geom_bond_distance
    _geom_bond_site_symmetry_2
    _ccdc_geom_bond_type
    C58    C60       1.39788      .   S
    C58    C59       1.40251      .   S
    H33    C88       1.08756  1_554   S
    C60    C61       1.40030      .   S
    C60    H15       1.08759  1_554   S
    H14    C59       1.09016      .   S
    C59    C55       1.40559      .   S
    C61    C54       1.39890      .   S
    H22    C70       1.09153      .   S
    H0     C36       1.09034      .   S
    C71    C70       1.40199      .   S
    C71    N103      1.35214      .   S
    C39    C36       1.40199      .   S
    C39    N93       1.34794      .   S
    C70    N102      1.33695      .   S
    C55    C54       1.40495      .   S
    C36    N92       1.33644      .   S
    C54    H12       1.08865      .   S
    N103   C77       1.34437      .   S
    N93    C37       1.34938      .   S
    N102   C76       1.34855      .   S
    N92    C38       1.34926      .   S
    C77    C76       1.39627      .   S
    C77    H26       1.08934      .   S
    C37    C38       1.39615      .   S
    C37    H1        1.09044      .   S
    C76    H25       1.08928      .   S
    C38    H2        1.09013      .   S
    H34    C90       1.09005      .   S
    H11    C52       1.09021      .   S
    H35    C91       1.09001      .   S
    H10    C51       1.09022      .   S
    C52    C51       1.39609      .   S
    C52    N96       1.34920      .   S
    C90    C91       1.39626      .   S
    C90    N106      1.34858      .   S
    C51    N97       1.34454      .   S
    C91    N107      1.34375      .   S
    H3     C40       1.08873      .   S
    N96    C50       1.33652      .   S
    N106   C84       1.33683      .   S
    N97    C53       1.35167      .   S
    N107   C85       1.35236      .   S
    C40    C41       1.40488      .   S
    C40    C47       1.39915      .   S
    C50    C53       1.40201      .   S
    C50    H9        1.09033      .   S
    C41    C45       1.40446      .   S
    C84    C85       1.40179      .   S
    C84    H31       1.09155      .   S
    C47    C46       1.40024      .   S
    C45    H5        1.09027      .   S
    C45    C44       1.40344      .   S
    C46    C44       1.39787      .   S
    C46    H6        1.08740      .   S
    H24    C74       1.08739      .   S
    C72    C74       1.39789      .   S
    C72    C73       1.40344      .   S
    C74    C75       1.40023      .   S
    H23    C73       1.09026      .   S
    C73    C69       1.40428      .   S
    C75    C68       1.39843      .   S
    H13    C56       1.09142      .   S
    H27    C78       1.09044      .   S
    C57    C56       1.40178      .   S
    C57    N99       1.35197      .   S
    C81    C78       1.40202      .   S
    C81    N105      1.35164      .   S
    C56    N98       1.33702      .   S
    C69    C68       1.40484      .   S
    C78    N104      1.33632      .   S
    C68    H21       1.08948      .   S
    N99    C63       1.34375      .   S
    N105   C79       1.34308      .   S
    N98    C62       1.34846      .   S
    N104   C80       1.34931      .   S
    C63    C62       1.39642      .   S
    C63    H17       1.09015      .   S
    C79    C80       1.39651      .   S
    C79    H28       1.09116      .   S
    C62    H16       1.08870      .   S
    C80    H29       1.09017      .   S
    H7     C48       1.09005      .   S
    H20    C66       1.09015      .   S
    H8     C49       1.09000      .   S
    H19    C65       1.09044      .   S
    C66    C65       1.39614      .   S
    C66    N100      1.34927      .   S
    C48    C49       1.39628      .   S
    C48    N94       1.34814      .   S
    C65    N101      1.34404      .   S
    C49    N95       1.34454      .   S
    H30    C82       1.08715      .   S
    N100   C64       1.33573      .   S
    N94    C42       1.33770      .   S
    N101   C67       1.35172      .   S
    N95    C43       1.35200      .   S
    C82    C83       1.40499      .   S
    C82    C89       1.40049      .   S
    C64    C67       1.40222      .   S
    C64    H18       1.09086      .   S
    C83    C87       1.40520      .   S
    C42    C43       1.40193      .   S
    C42    H4        1.09154      .   S
    C89    C88       1.40029      .   S
    C87    H32       1.09027      .   S
    C87    C86       1.40358      .   S
    C88    C86       1.39786      .   S
