# CIF file generated by openbabel 2.4.90, see http://openbabel.sf.net
data_I
_chemical_name_common ''
_cell_length_a 13.019
_cell_length_b 12.951
_cell_length_c 21.117
_cell_angle_alpha 85.765
_cell_angle_beta 85.797
_cell_angle_gamma 69.843
_space_group_name_H-M_alt 'P 1'
_space_group_name_Hall 'P 1'
loop_
    _symmetry_equiv_pos_as_xyz
    x,y,z
loop_
    _atom_site_label
    _atom_site_type_symbol
    _atom_site_fract_x
    _atom_site_fract_y
    _atom_site_fract_z
    _atom_site_occupancy
    C0      C    0.10554   0.08770   0.31640   1.000
    C1      C    0.31774   0.29945   0.40489   1.000
    C2      C    0.12036   0.10563   0.55413   1.000
    C3      C    0.91388   0.89267   0.18361   1.000
    C4      C    0.70052   0.68222   0.09505   1.000
    C5      C    0.89474   0.87932   0.94581   1.000
    C6      C    0.89450   0.91228   0.68358   1.000
    C7      C    0.68229   0.70053   0.59508   1.000
    C8      C    0.87968   0.89434   0.44585   1.000
    C9      C    0.08616   0.10729   0.81636   1.000
    C10     C    0.29952   0.31775   0.90492   1.000
    C11     C    0.10530   0.12065   0.05410   1.000
