# CIF file generated by openbabel 2.4.90, see http://openbabel.sf.net
data_I
_chemical_name_common ''
_cell_length_a 13.019
_cell_length_b 12.951
_cell_length_c 21.117
_cell_angle_alpha 85.765
_cell_angle_beta 85.797
_cell_angle_gamma 69.843
_space_group_name_H-M_alt 'P 1'
_space_group_name_Hall 'P 1'
loop_
    _symmetry_equiv_pos_as_xyz
    x,y,z
loop_
    _atom_site_label
    _atom_site_type_symbol
    _atom_site_fract_x
    _atom_site_fract_y
    _atom_site_fract_z
    _atom_site_occupancy
    Zr0     Zr   0.07167   0.06351   0.18121   1.000
    Zr1     Zr   0.56834   0.55906   0.08798   1.000
    Zr2     Zr   0.93722   0.92756   0.31800   1.000
    Zr3     Zr   0.44160   0.43101   0.41196   1.000
    Zr4     Zr   0.92836   0.93647   0.81877   1.000
    Zr5     Zr   0.43170   0.44093   0.91199   1.000
    Zr6     Zr   0.06282   0.07241   0.68108   1.000
    Zr7     Zr   0.55844   0.56896   0.58800   1.000
    Zr8     Zr   0.69599   0.31131   0.05103   1.000
    Zr9     Zr   0.10554   0.08770   0.31640   1.000
    Zr10    Zr   0.66321   0.28369   0.95993   1.000
    Zr11    Zr   0.31774   0.29945   0.40489   1.000
    Zr12    Zr   0.12036   0.10563   0.55413   1.000
    Zr13    Zr   0.68808   0.30349   0.44930   1.000
    Zr14    Zr   0.91388   0.89267   0.18361   1.000
    Zr15    Zr   0.71557   0.33644   0.54038   1.000
    Zr16    Zr   0.70052   0.68222   0.09505   1.000
    Zr17    Zr   0.89474   0.87932   0.94581   1.000
    Zr18    Zr   0.30404   0.68867   0.94895   1.000
    Zr19    Zr   0.89450   0.91228   0.68358   1.000
    Zr20    Zr   0.33682   0.71629   0.04005   1.000
    Zr21    Zr   0.68229   0.70053   0.59508   1.000
    Zr22    Zr   0.87968   0.89434   0.44585   1.000
    Zr23    Zr   0.31196   0.69648   0.55067   1.000
    Zr24    Zr   0.08616   0.10729   0.81636   1.000
    Zr25    Zr   0.28447   0.66353   0.45959   1.000
    Zr26    Zr   0.29952   0.31775   0.90492   1.000
    Zr27    Zr   0.10530   0.12065   0.05410   1.000
    Zr28    Zr   0.60660   0.39766   0.03473   1.000
    Zr29    Zr   0.73433   0.23734   0.00581   1.000
    Zr30    Zr   0.58538   0.37972   0.97550   1.000
    Zr31    Zr   0.60158   0.39258   0.46583   1.000
    Zr32    Zr   0.76206   0.26542   0.49438   1.000
    Zr33    Zr   0.61940   0.41392   0.52505   1.000
    Zr34    Zr   0.39343   0.60232   0.96520   1.000
    Zr35    Zr   0.26570   0.76263   0.99417   1.000
    Zr36    Zr   0.41465   0.62026   0.02448   1.000
    Zr37    Zr   0.39846   0.60739   0.53414   1.000
    Zr38    Zr   0.23799   0.73454   0.50560   1.000
    Zr39    Zr   0.38064   0.58605   0.47492   1.000
    Zr40    Zr   0.10241   0.14583   0.26425   1.000
    Zr41    Zr   0.08053   0.00065   0.32210   1.000
    Zr42    Zr   0.05750   0.04870   0.56437   1.000
    Zr43    Zr   0.34655   0.32868   0.34974   1.000
    Zr44    Zr   0.34676   0.32853   0.45600   1.000
    Zr45    Zr   0.15527   0.14308   0.59930   1.000
    Zr46    Zr   0.85716   0.89400   0.23601   1.000
    Zr47    Zr   0.99970   0.91909   0.17775   1.000
    Zr48    Zr   0.95168   0.94219   0.93560   1.000
    Zr49    Zr   0.67097   0.65378   0.15022   1.000
    Zr50    Zr   0.67140   0.65322   0.04396   1.000
    Zr51    Zr   0.85717   0.84458   0.90055   1.000
    Zr52    Zr   0.89763   0.85415   0.73573   1.000
    Zr53    Zr   0.91950   0.99933   0.67780   1.000
    Zr54    Zr   0.94253   0.95128   0.43560   1.000
    Zr55    Zr   0.65348   0.67130   0.65024   1.000
    Zr56    Zr   0.65327   0.67145   0.54398   1.000
    Zr57    Zr   0.84477   0.85689   0.40062   1.000
    Zr58    Zr   0.14289   0.10596   0.76397   1.000
    Zr59    Zr   0.00034   0.08088   0.82222   1.000
    Zr60    Zr   0.04836   0.05779   0.06438   1.000
    Zr61    Zr   0.32906   0.34619   0.84976   1.000
    Zr62    Zr   0.32864   0.34676   0.95601   1.000
    Zr63    Zr   0.14286   0.15540   0.09942   1.000
    O64     O    0.71516   0.27433   0.02842   1.000
    O65     O    0.69877   0.26051   0.98287   1.000
    O66     O    0.37574   0.66827   0.03227   1.000
    O67     O    0.49149   0.58966   0.05623   1.000
    O68     O    0.40404   0.61129   0.99484   1.000
    O69     O    0.65129   0.35449   0.04288   1.000
    O70     O    0.58747   0.47836   0.06136   1.000
    O71     O    0.59599   0.38869   0.00512   1.000
    O72     O    0.30126   0.73946   0.01711   1.000
    O73     O    0.61987   0.60614   0.06597   1.000
    O74     O    0.68596   0.66772   0.06951   1.000
    O75     O    0.07683   0.08922   0.05924   1.000
    O76     O    0.12408   0.13803   0.07676   1.000
    O77     O    0.06001   0.06065   0.12280   1.000
    O78     O    0.68575   0.66800   0.12264   1.000
    O79     O    0.10727   0.10946   0.14032   1.000
    O80     O    0.03568   0.99130   0.17948   1.000
    O81     O    0.95679   0.90588   0.18068   1.000
    O82     O    0.08704   0.10467   0.22273   1.000
    O83     O    0.88552   0.89334   0.20981   1.000
    O84     O    0.89719   0.91078   0.27701   1.000
    O85     O    0.10397   0.11676   0.29032   1.000
    O86     O    0.09303   0.04418   0.31925   1.000
    O87     O    0.00888   0.96411   0.32005   1.000
    O88     O    0.89100   0.89223   0.35931   1.000
    O89     O    0.93988   0.93942   0.37680   1.000
    O90     O    0.33215   0.31407   0.37732   1.000
    O91     O    0.86222   0.87562   0.42324   1.000
    O92     O    0.33225   0.31399   0.43045   1.000
    O93     O    0.39418   0.37977   0.43398   1.000
    O94     O    0.52159   0.41180   0.43890   1.000
    O95     O    0.41112   0.50853   0.44344   1.000
    O96     O    0.91111   0.92281   0.44073   1.000
    O97     O    0.64483   0.34803   0.45757   1.000
    O98     O    0.72507   0.28446   0.47184   1.000
    O99     O    0.33256   0.62479   0.46726   1.000
    O100    O    0.26123   0.69904   0.48260   1.000
    O101    O    0.61049   0.40325   0.49544   1.000
    O102    O    0.38955   0.59672   0.50453   1.000
    O103    O    0.73881   0.30093   0.51738   1.000
    O104    O    0.27497   0.71551   0.52814   1.000
    O105    O    0.66749   0.37518   0.53272   1.000
    O106    O    0.58892   0.49144   0.55653   1.000
    O107    O    0.35521   0.65193   0.54241   1.000
    O108    O    0.47845   0.58817   0.56107   1.000
    O109    O    0.60586   0.62020   0.56599   1.000
    O110    O    0.66778   0.68599   0.56953   1.000
    O111    O    0.08893   0.07717   0.55925   1.000
    O112    O    0.13782   0.12436   0.57672   1.000
    O113    O    0.06016   0.06055   0.62273   1.000
    O114    O    0.66789   0.68591   0.62266   1.000
    O115    O    0.10905   0.10774   0.64019   1.000
    O116    O    0.99116   0.03587   0.67944   1.000
    O117    O    0.90700   0.95580   0.68069   1.000
    O118    O    0.10286   0.08918   0.72253   1.000
    O119    O    0.89606   0.88322   0.70966   1.000
    O120    O    0.91300   0.89531   0.77725   1.000
    O121    O    0.11453   0.10662   0.79017   1.000
    O122    O    0.04325   0.09409   0.81929   1.000
    O123    O    0.96435   0.00868   0.82050   1.000
    O124    O    0.89277   0.89053   0.85966   1.000
    O125    O    0.94002   0.93933   0.87719   1.000
    O126    O    0.31429   0.33197   0.87734   1.000
    O127    O    0.87595   0.86195   0.92318   1.000
    O128    O    0.31408   0.33226   0.93047   1.000
    O129    O    0.38017   0.39384   0.93400   1.000
    O130    O    0.41256   0.52162   0.93860   1.000
    O131    O    0.50854   0.41032   0.94375   1.000
    O132    O    0.92321   0.91076   0.94071   1.000
    O133    O    0.34873   0.64549   0.95708   1.000
    O134    O    0.28487   0.72565   0.97156   1.000
    O135    O    0.62429   0.33171   0.96772   1.000
    N136    N    0.30250   0.81417   0.67246   1.000
    O137    O    0.21967   0.89819   0.67627   1.000
    O138    O    0.38951   0.72719   0.64474   1.000
    O139    O    0.30579   0.76824   0.62641   1.000
    N140    N    0.18136   0.16205   0.42470   1.000
    O141    O    0.23191   0.21307   0.41713   1.000
    O142    O    0.15904   0.14046   0.47260   1.000
    O143    O    0.15321   0.13429   0.38465   1.000
    N144    N    0.81381   0.30281   0.17240   1.000
    O145    O    0.76784   0.30571   0.12652   1.000
    O146    O    0.72669   0.38984   0.14470   1.000
    O147    O    0.89780   0.22009   0.17622   1.000
    N148    N    0.67505   0.18523   0.83096   1.000
    O149    O    0.59223   0.27526   0.85813   1.000
    O150    O    0.75992   0.10181   0.82652   1.000
    O151    O    0.67037   0.22316   0.88009   1.000
    N152    N    0.69754   0.18580   0.32751   1.000
    O153    O    0.78036   0.10178   0.32348   1.000
    O154    O    0.61053   0.27278   0.35523   1.000
    O155    O    0.69425   0.23172   0.37357   1.000
    N156    N    0.32498   0.81475   0.16900   1.000
    O157    O    0.24011   0.89818   0.17344   1.000
    O158    O    0.40780   0.72472   0.14184   1.000
    O159    O    0.32966   0.77682   0.11988   1.000
    N160    N    0.18621   0.69717   0.82754   1.000
    O161    O    0.23218   0.69427   0.87344   1.000
    O162    O    0.27333   0.61014   0.85519   1.000
    O163    O    0.10222   0.77989   0.82374   1.000
    N164    N    0.81867   0.83793   0.57528   1.000
    O165    O    0.84682   0.86569   0.61532   1.000
    O166    O    0.76812   0.78691   0.58285   1.000
    O167    O    0.84100   0.85952   0.52737   1.000
    N168    N    0.81442   0.32552   0.66898   1.000
    O169    O    0.77633   0.32983   0.62000   1.000
    O170    O    0.89782   0.24075   0.67333   1.000
    O171    O    0.72423   0.40825   0.64190   1.000
    N172    N    0.18562   0.67446   0.33098   1.000
    O173    O    0.10222   0.75922   0.32641   1.000
    O174    O    0.22372   0.67014   0.37997   1.000
    O175    O    0.27582   0.59173   0.35805   1.000
    N176    N    0.83861   0.81790   0.07523   1.000
    O177    O    0.86008   0.84038   0.02733   1.000
    O178    O    0.78735   0.76759   0.08280   1.000
    O179    O    0.86673   0.84565   0.11530   1.000
    N180    N    0.16142   0.18209   0.92472   1.000
    O181    O    0.13996   0.15960   0.97262   1.000
    O182    O    0.13330   0.15433   0.88465   1.000
    O183    O    0.21268   0.23239   0.91716   1.000
loop_
    _geom_bond_atom_site_label_1
    _geom_bond_atom_site_label_2
    _geom_bond_distance
    _geom_bond_site_symmetry_2
    _ccdc_geom_bond_type
    Zr29   O64       0.67348      .   S
    Zr8    O64       0.67348      .   S
    Zr29   O65       0.67433  1_554   S
    Zr10   O65       0.67433      .   S
    Zr36   O66       0.67543      .   S
    Zr20   O66       0.67543      .   S
    Zr36   O67       1.18034      .   S
    Zr1    O67       1.18034      .   S
    Zr36   O68       0.67736  1_554   S
    Zr34   O68       0.67736      .   S
    Zr28   O69       0.67609      .   S
    Zr8    O69       0.67609      .   S
    Zr28   O70       1.16501      .   S
    Zr1    O70       1.16501      .   S
    Zr28   O71       0.67685      .   S
    Zr30   O71       0.67685  1_556   S
    Zr20   O72       0.67434      .   S
    Zr35   O72       0.67434  1_556   S
    Zr50   O73       1.11007      .   S
    Zr1    O73       1.11007      .   S
    Zr50   O74       0.64552      .   S
    Zr16   O74       0.64552      .   S
    Zr27   O75       0.63754      .   S
    Zr60   O75       0.63754      .   S
    Zr27   O76       0.64059      .   S
    Zr63   O76       0.64059      .   S
    Zr60   O77       1.25861      .   S
    Zr0    O77       1.25861      .   S
    Zr16   O78       0.63433      .   S
    Zr49   O78       0.63433      .   S
    Zr63   O79       1.17052      .   S
    Zr0    O79       1.17052      .   S
    Zr47   O80       1.18531  1_655   S
    Zr0    O80       1.18531  1_545   S
    Zr47   O81       0.63589      .   S
    Zr14   O81       0.63589      .   S
    Zr0    O82       1.12302      .   S
    Zr40   O82       1.12302      .   S
    Zr14   O83       0.64116      .   S
    Zr46   O83       0.64116      .   S
    Zr46   O84       1.11367      .   S
    Zr2    O84       1.11367      .   S
    Zr40   O85       0.64114      .   S
    Zr9    O85       0.64114      .   S
    Zr9    O86       0.63607      .   S
    Zr41   O86       0.63607      .   S
    Zr2    O87       1.18718  1_655   S
    Zr41   O87       1.18718  1_545   S
    Zr2    O88       1.17750      .   S
    Zr57   O88       1.17750      .   S
    Zr2    O89       1.26676      .   S
    Zr54   O89       1.26676      .   S
    Zr43   O90       0.63423      .   S
    Zr11   O90       0.63423      .   S
    Zr57   O91       0.63994      .   S
    Zr22   O91       0.63994      .   S
    Zr11   O92       0.64562      .   S
    Zr44   O92       0.64562      .   S
    Zr3    O93       1.11016      .   S
    Zr44   O93       1.11016      .   S
    Zr3    O94       1.16499      .   S
    Zr31   O94       1.16499      .   S
    Zr3    O95       1.18009      .   S
    Zr39   O95       1.18009      .   S
    Zr54   O96       0.63767      .   S
    Zr22   O96       0.63767      .   S
    Zr13   O97       0.67599      .   S
    Zr31   O97       0.67599      .   S
    Zr13   O98       0.67352      .   S
    Zr32   O98       0.67352      .   S
    Zr25   O99       0.67544      .   S
    Zr39   O99       0.67544      .   S
    Zr25   O100      0.67421      .   S
    Zr38   O100      0.67421      .   S
    Zr31   O101      0.67673      .   S
    Zr33   O101      0.67673      .   S
    Zr39   O102      0.67673      .   S
    Zr37   O102      0.67673      .   S
    Zr32   O103      0.67414      .   S
    Zr15   O103      0.67414      .   S
    Zr38   O104      0.67344      .   S
    Zr23   O104      0.67344      .   S
    Zr33   O105      0.67544      .   S
    Zr15   O105      0.67544      .   S
    Zr33   O106      1.18003      .   S
    Zr7    O106      1.18003      .   S
    Zr37   O107      0.67599      .   S
    Zr23   O107      0.67599      .   S
    Zr37   O108      1.16493      .   S
    Zr7    O108      1.16493      .   S
    Zr56   O109      1.11009      .   S
    Zr7    O109      1.11009      .   S
    Zr56   O110      0.64552      .   S
    Zr21   O110      0.64552      .   S
    Zr12   O111      0.63766      .   S
    Zr42   O111      0.63766      .   S
    Zr12   O112      0.63943      .   S
    Zr45   O112      0.63943      .   S
    Zr42   O113      1.25743      .   S
    Zr6    O113      1.25743      .   S
    Zr21   O114      0.63432      .   S
    Zr55   O114      0.63432      .   S
    Zr45   O115      1.17154      .   S
    Zr6    O115      1.17154      .   S
    Zr53   O116      1.18614  1_565   S
    Zr6    O116      1.18614  1_455   S
    Zr53   O117      0.63609      .   S
    Zr19   O117      0.63609      .   S
    Zr6    O118      1.12153      .   S
    Zr58   O118      1.12153      .   S
    Zr19   O119      0.64113      .   S
    Zr52   O119      0.64113      .   S
    Zr52   O120      1.12302      .   S
    Zr4    O120      1.12302      .   S
    Zr58   O121      0.64108      .   S
    Zr24   O121      0.64108      .   S
    Zr24   O122      0.63589      .   S
    Zr59   O122      0.63589      .   S
    Zr4    O123      1.18528  1_565   S
    Zr59   O123      1.18528  1_455   S
    Zr4    O124      1.17043      .   S
    Zr51   O124      1.17043      .   S
    Zr4    O125      1.25862      .   S
    Zr48   O125      1.25862      .   S
    Zr61   O126      0.63423      .   S
    Zr26   O126      0.63423      .   S
    Zr51   O127      0.64009      .   S
    Zr17   O127      0.64009      .   S
    Zr26   O128      0.64553      .   S
    Zr62   O128      0.64553      .   S
    Zr5    O129      1.11007      .   S
    Zr62   O129      1.11007      .   S
    Zr5    O130      1.16478      .   S
    Zr34   O130      1.16478      .   S
    Zr5    O131      1.18038      .   S
    Zr30   O131      1.18038      .   S
    Zr48   O132      0.63748      .   S
    Zr17   O132      0.63748      .   S
    Zr18   O133      0.67596      .   S
    Zr34   O133      0.67596      .   S
    Zr18   O134      0.67348      .   S
    Zr35   O134      0.67348      .   S
    Zr10   O135      0.67543      .   S
    Zr30   O135      0.67543      .   S
    N136   O137      1.24289      .   S
    Zr6    O137      2.46969  1_545   S
    N136   O138      1.41967      .   S
    Zr7    O138      2.70968      .   S
    N136   O139      1.16749      .   S
    Zr23   O139      1.89139      .   S
    N140   O141      1.07887      .   S
    Zr11   O141      1.82857      .   S
    N140   O142      1.07572      .   S
    Zr12   O142      1.82638      .   S
    N140   O143      1.07689      .   S
    Zr9    O143      1.82879      .   S
    N144   O145      1.16726      .   S
    Zr8    O145      1.89109      .   S
    N144   O146      1.42053      .   S
    Zr1    O146      2.71075      .   S
    N144   O147      1.24210      .   S
    Zr0    O147      2.46714  1_455   S
    N148   O149      1.41177      .   S
    Zr5    O149      2.68073      .   S
    N148   O150      1.25463      .   S
    Zr4    O150      2.48669  1_565   S
    N148   O151      1.16916      .   S
    Zr10   O151      1.89407      .   S
    N152   O153      1.24321      .   S
    Zr2    O153      2.47041  1_565   S
    N152   O154      1.41968      .   S
    Zr3    O154      2.70960      .   S
    N152   O155      1.16756      .   S
    Zr13   O155      1.89138      .   S
    N156   O157      1.25462      .   S
    Zr0    O157      2.48670  1_545   S
    N156   O158      1.41172      .   S
    Zr1    O158      2.68072      .   S
    N156   O159      1.16903      .   S
    Zr20   O159      1.89384      .   S
    N160   O161      1.16762      .   S
    Zr18   O161      1.89146      .   S
    N160   O162      1.42003      .   S
    Zr5    O162      2.71158      .   S
    N160   O163      1.24206      .   S
    Zr4    O163      2.46707  1_655   S
    N164   O165      1.07690      .   S
    Zr19   O165      1.82889      .   S
    N164   O166      1.07886      .   S
    Zr21   O166      1.82856      .   S
    N164   O167      1.07567      .   S
    Zr22   O167      1.82633      .   S
    N168   O169      1.16895      .   S
    Zr15   O169      1.89385      .   S
    N168   O170      1.25331      .   S
    Zr6    O170      2.48307  1_455   S
    N168   O171      1.41232      .   S
    Zr7    O171      2.68332      .   S
    N172   O173      1.25363      .   S
    Zr2    O173      2.48400  1_655   S
    N172   O174      1.16908      .   S
    Zr25   O174      1.89398      .   S
    N172   O175      1.41230      .   S
    Zr3    O175      2.68339      .   S
    N176   O177      1.07574      .   S
    Zr17   O177      1.82655  1_556   S
    N176   O178      1.07888      .   S
    Zr16   O178      1.82855      .   S
    N176   O179      1.07707      .   S
    Zr14   O179      1.82912      .   S
    N180   O181      1.07560      .   S
    Zr27   O181      1.82584  1_554   S
    N180   O182      1.07711      .   S
    Zr24   O182      1.82882      .   S
    N180   O183      1.07886      .   S
    Zr26   O183      1.82854      .   S
