# CIF file generated by openbabel 2.4.90, see http://openbabel.sf.net
data_I
_chemical_name_common ''
_cell_length_a 13.019
_cell_length_b 12.951
_cell_length_c 21.117
_cell_angle_alpha 85.765
_cell_angle_beta 85.797
_cell_angle_gamma 69.843
_space_group_name_H-M_alt 'P 1'
_space_group_name_Hall 'P 1'
loop_
    _symmetry_equiv_pos_as_xyz
    x,y,z
loop_
    _atom_site_label
    _atom_site_type_symbol
    _atom_site_fract_x
    _atom_site_fract_y
    _atom_site_fract_z
    _atom_site_occupancy
    C0      C    0.07167   0.06351   0.18121   1.000
    C1      C    0.56834   0.55906   0.08798   1.000
    C2      C    0.93722   0.92756   0.31800   1.000
    C3      C    0.44160   0.43101   0.41196   1.000
    C4      C    0.92836   0.93647   0.81877   1.000
    C5      C    0.43170   0.44093   0.91199   1.000
    C6      C    0.06282   0.07241   0.68108   1.000
    C7      C    0.55844   0.56896   0.58800   1.000
    C8      C    0.86784   0.14289   0.09728   1.000
    C9      C    0.73902   0.46564   0.22525   1.000
    C10     C    0.90532   0.29885   0.25473   1.000
    C11     C    0.22863   0.21877   0.31434   1.000
    C12     C    0.82122   0.10421   0.91384   1.000
    C13     C    0.06761   0.04118   0.44357   1.000
    C14     C    0.24660   0.22672   0.51653   1.000
    C15     C    0.68471   0.11347   0.74033   1.000
    C16     C    0.52508   0.28300   0.77172   1.000
    C17     C    0.85669   0.13236   0.40264   1.000
    C18     C    0.53535   0.26005   0.27476   1.000
    C19     C    0.70226   0.09427   0.24492   1.000
    C20     C    0.78240   0.77017   0.18559   1.000
    C21     C    0.89576   0.17913   0.58595   1.000
    C22     C    0.95969   0.93138   0.05640   1.000
    C23     C    0.77322   0.75343   0.98338   1.000
    C24     C    0.88645   0.31648   0.75930   1.000
    C25     C    0.71633   0.47564   0.72840   1.000
    C26     C    0.13218   0.85709   0.90270   1.000
    C27     C    0.26100   0.53433   0.77473   1.000
    C28     C    0.09469   0.70112   0.74525   1.000
    C29     C    0.77140   0.78121   0.68564   1.000
    C30     C    0.17881   0.89577   0.08614   1.000
    C31     C    0.93243   0.95880   0.55641   1.000
    C32     C    0.75344   0.77326   0.48345   1.000
    C33     C    0.31533   0.88652   0.25960   1.000
    C34     C    0.47495   0.71698   0.22820   1.000
    C35     C    0.14335   0.86761   0.59733   1.000
    C36     C    0.46469   0.73990   0.72522   1.000
    C37     C    0.29777   0.90569   0.75506   1.000
    C38     C    0.21764   0.22979   0.81438   1.000
    C39     C    0.10428   0.82084   0.41403   1.000
    C40     C    0.04034   0.06860   0.94358   1.000
    C41     C    0.22681   0.24656   0.01660   1.000
    C42     C    0.11360   0.68350   0.24060   1.000
    C43     C    0.28372   0.52434   0.27155   1.000
    C44     C    0.83757   0.21333   0.12724   1.000
    C45     C    0.76649   0.39190   0.19791   1.000
    C46     C    0.85753   0.30082   0.21409   1.000
    C47     C    0.74775   0.30592   0.11024   1.000
    C48     C    0.69599   0.31131   0.05103   1.000
    C49     C    0.20859   0.19357   0.36264   1.000
    C50     C    0.10554   0.08770   0.31640   1.000
    C51     C    0.14459   0.12537   0.37282   1.000
    C52     C    0.75557   0.14405   0.88154   1.000
    C53     C    0.66818   0.23852   0.89851   1.000
    C54     C    0.66321   0.28369   0.95993   1.000
    C55     C    0.31774   0.29945   0.40489   1.000
    C56     C    0.15308   0.13210   0.48689   1.000
    C57     C    0.11755   0.09376   0.43509   1.000
    C58     C    0.21841   0.19825   0.47617   1.000
    C59     C    0.24719   0.22872   0.41423   1.000
    C60     C    0.67962   0.14982   0.78590   1.000
    C61     C    0.59267   0.24402   0.80275   1.000
    C62     C    0.12036   0.10563   0.55413   1.000
    C63     C    0.78653   0.16235   0.37270   1.000
    C64     C    0.60871   0.23282   0.30210   1.000
    C65     C    0.69992   0.14205   0.28573   1.000
    C66     C    0.69383   0.25181   0.38994   1.000
    C67     C    0.68808   0.30349   0.44930   1.000
    C68     C    0.80737   0.79039   0.13729   1.000
    C69     C    0.91388   0.89267   0.18361   1.000
    C70     C    0.87582   0.85412   0.12713   1.000
    C71     C    0.85574   0.24483   0.61833   1.000
    C72     C    0.76090   0.33186   0.60165   1.000
    C73     C    0.71557   0.33644   0.54038   1.000
    C74     C    0.70052   0.68222   0.09505   1.000
    C75     C    0.86833   0.84641   0.01305   1.000
    C76     C    0.90705   0.88151   0.06480   1.000
    C77     C    0.80198   0.78129   0.02376   1.000
    C78     C    0.77166   0.75236   0.08570   1.000
    C79     C    0.84994   0.32126   0.71393   1.000
    C80     C    0.75543   0.40790   0.69730   1.000
    C81     C    0.89474   0.87932   0.94581   1.000
    C82     C    0.16245   0.78664   0.87270   1.000
    C83     C    0.23353   0.60807   0.80207   1.000
    C84     C    0.14249   0.69915   0.78589   1.000
    C85     C    0.25227   0.69406   0.88974   1.000
    C86     C    0.30404   0.68867   0.94895   1.000
    C87     C    0.79144   0.80641   0.63730   1.000
    C88     C    0.89450   0.91228   0.68358   1.000
    C89     C    0.85544   0.87462   0.62715   1.000
    C90     C    0.24446   0.85593   0.11844   1.000
    C91     C    0.33185   0.76146   0.10146   1.000
    C92     C    0.33682   0.71629   0.04005   1.000
    C93     C    0.68229   0.70053   0.59508   1.000
    C94     C    0.84696   0.86788   0.51309   1.000
    C95     C    0.88249   0.90621   0.56489   1.000
    C96     C    0.78163   0.80172   0.52381   1.000
    C97     C    0.75285   0.77127   0.58575   1.000
    C98     C    0.32041   0.85016   0.21407   1.000
    C99     C    0.40736   0.75596   0.19722   1.000
    C100    C    0.87968   0.89434   0.44585   1.000
    C101    C    0.21351   0.83761   0.62728   1.000
    C102    C    0.39132   0.76714   0.69780   1.000
    C103    C    0.30012   0.85791   0.71425   1.000
    C104    C    0.30621   0.74815   0.61004   1.000
    C105    C    0.31196   0.69648   0.55067   1.000
    C106    C    0.19266   0.20959   0.86260   1.000
    C107    C    0.08616   0.10729   0.81636   1.000
    C108    C    0.12422   0.14586   0.87280   1.000
    C109    C    0.14431   0.75514   0.38164   1.000
    C110    C    0.23915   0.66811   0.39832   1.000
    C111    C    0.28447   0.66353   0.45959   1.000
    C112    C    0.29952   0.31775   0.90492   1.000
    C113    C    0.13169   0.15359   0.98692   1.000
    C114    C    0.09298   0.11847   0.93511   1.000
    C115    C    0.19805   0.21870   0.97622   1.000
    C116    C    0.22837   0.24763   0.91428   1.000
    C117    C    0.15010   0.67872   0.28604   1.000
    C118    C    0.24461   0.59208   0.30264   1.000
    C119    C    0.10530   0.12065   0.05410   1.000
    C120    C    0.89193   0.21122   0.17888   1.000
    C121    C    0.71082   0.39468   0.14600   1.000
    C122    C    0.60660   0.39766   0.03473   1.000
    C123    C    0.73433   0.23734   0.00581   1.000
    C124    C    0.58538   0.37972   0.97550   1.000
    C125    C    0.76124   0.10030   0.82540   1.000
    C126    C    0.58713   0.28967   0.85862   1.000
    C127    C    0.78915   0.10795   0.32089   1.000
    C128    C    0.60542   0.28850   0.35392   1.000
    C129    C    0.60158   0.39258   0.46583   1.000
    C130    C    0.76206   0.26542   0.49438   1.000
    C131    C    0.61940   0.41392   0.52505   1.000
    C132    C    0.89962   0.23956   0.67429   1.000
    C133    C    0.70962   0.41300   0.64164   1.000
    C134    C    0.10809   0.78875   0.82110   1.000
    C135    C    0.28920   0.60530   0.85368   1.000
    C136    C    0.39343   0.60232   0.96520   1.000
    C137    C    0.26570   0.76263   0.99417   1.000
    C138    C    0.41465   0.62026   0.02448   1.000
    C139    C    0.23879   0.89969   0.17454   1.000
    C140    C    0.41290   0.71031   0.14136   1.000
    C141    C    0.21088   0.89201   0.67908   1.000
    C142    C    0.39461   0.71146   0.64606   1.000
    C143    C    0.39846   0.60739   0.53414   1.000
    C144    C    0.23799   0.73454   0.50560   1.000
    C145    C    0.38064   0.58605   0.47492   1.000
    C146    C    0.10043   0.76041   0.32569   1.000
    C147    C    0.29042   0.58698   0.35830   1.000
    C148    C    0.10241   0.14583   0.26425   1.000
    C149    C    0.08053   0.00065   0.32210   1.000
    C150    C    0.05750   0.04870   0.56437   1.000
    C151    C    0.34655   0.32868   0.34974   1.000
    C152    C    0.34676   0.32853   0.45600   1.000
    C153    C    0.15527   0.14308   0.59930   1.000
    C154    C    0.85716   0.89400   0.23601   1.000
    C155    C    0.99970   0.91909   0.17775   1.000
    C156    C    0.95168   0.94219   0.93560   1.000
    C157    C    0.67097   0.65378   0.15022   1.000
    C158    C    0.67140   0.65322   0.04396   1.000
    C159    C    0.85717   0.84458   0.90055   1.000
    C160    C    0.89763   0.85415   0.73573   1.000
    C161    C    0.91950   0.99933   0.67780   1.000
    C162    C    0.94253   0.95128   0.43560   1.000
    C163    C    0.65348   0.67130   0.65024   1.000
    C164    C    0.65327   0.67145   0.54398   1.000
    C165    C    0.84477   0.85689   0.40062   1.000
    C166    C    0.14289   0.10596   0.76397   1.000
    C167    C    0.00034   0.08088   0.82222   1.000
    C168    C    0.04836   0.05779   0.06438   1.000
    C169    C    0.32906   0.34619   0.84976   1.000
    C170    C    0.32864   0.34676   0.95601   1.000
    C171    C    0.14286   0.15540   0.09942   1.000
    O172    O    0.71516   0.27433   0.02842   1.000
    O173    O    0.69877   0.26051   0.98287   1.000
    O174    O    0.83516   0.81385   0.01841   1.000
    O175    O    0.88769   0.86396   0.03893   1.000
    O176    O    0.88154   0.86287   0.97943   1.000
    O177    O    0.21243   0.23263   0.99641   1.000
    O178    O    0.78682   0.76683   0.05473   1.000
    O179    O    0.78760   0.76736   0.00357   1.000
    O180    O    0.37574   0.66827   0.03227   1.000
    O181    O    0.49149   0.58966   0.05623   1.000
    O182    O    0.40404   0.61129   0.99484   1.000
    O183    O    0.65129   0.35449   0.04288   1.000
    O184    O    0.58747   0.47836   0.06136   1.000
    O185    O    0.59599   0.38869   0.00512   1.000
    O186    O    0.33434   0.73888   0.07076   1.000
    O187    O    0.30126   0.73946   0.01711   1.000
    O188    O    0.61987   0.60614   0.06597   1.000
    O189    O    0.68596   0.66772   0.06951   1.000
    O190    O    0.72187   0.30861   0.08064   1.000
    O191    O    0.07683   0.08922   0.05924   1.000
    O192    O    0.12408   0.13803   0.07676   1.000
    O193    O    0.11850   0.13712   0.02051   1.000
    O194    O    0.93337   0.90644   0.06060   1.000
    O195    O    0.06001   0.06065   0.12280   1.000
    O196    O    0.89144   0.86782   0.09596   1.000
    O197    O    0.73609   0.71729   0.09038   1.000
    O198    O    0.78952   0.77138   0.11150   1.000
    O199    O    0.21164   0.87585   0.10229   1.000
    O200    O    0.49062   0.63468   0.11467   1.000
    O201    O    0.63958   0.47687   0.11699   1.000
    O202    O    0.68575   0.66800   0.12264   1.000
    O203    O    0.85271   0.17811   0.11226   1.000
    O204    O    0.10727   0.10946   0.14032   1.000
    O205    O    0.28816   0.80870   0.10995   1.000
    O206    O    0.37238   0.73589   0.12141   1.000
    O207    O    0.79266   0.25962   0.11874   1.000
    O208    O    0.72929   0.35030   0.12812   1.000
    O209    O    0.24163   0.87781   0.14649   1.000
    O210    O    0.84160   0.82225   0.13221   1.000
    O211    O    0.89485   0.87340   0.15537   1.000
    O212    O    0.86475   0.21228   0.15306   1.000
    O213    O    0.79489   0.78028   0.16144   1.000
    O214    O    0.41013   0.73314   0.16929   1.000
    O215    O    0.73866   0.39329   0.17196   1.000
    O216    O    0.15523   0.98160   0.17788   1.000
    O217    O    0.27960   0.87492   0.19431   1.000
    O218    O    0.03568   0.99130   0.17948   1.000
    O219    O    0.95679   0.90588   0.18068   1.000
    O220    O    0.98180   0.13737   0.18005   1.000
    O221    O    0.87473   0.25602   0.19649   1.000
    O222    O    0.08704   0.10467   0.22273   1.000
    O223    O    0.88552   0.89334   0.20981   1.000
    O224    O    0.36388   0.80306   0.20565   1.000
    O225    O    0.44115   0.73647   0.21271   1.000
    O226    O    0.81201   0.34636   0.20600   1.000
    O227    O    0.75275   0.42877   0.21158   1.000
    O228    O    0.31787   0.86834   0.23684   1.000
    O229    O    0.88143   0.29984   0.23441   1.000
    O230    O    0.89719   0.91078   0.27701   1.000
    O231    O    0.13185   0.68111   0.26332   1.000
    O232    O    0.70109   0.11816   0.26533   1.000
    O233    O    0.10397   0.11676   0.29032   1.000
    O234    O    0.26417   0.55821   0.28710   1.000
    O235    O    0.57203   0.24643   0.28843   1.000
    O236    O    0.65431   0.18744   0.29392   1.000
    O237    O    0.74453   0.12500   0.30331   1.000
    O238    O    0.19736   0.63540   0.29434   1.000
    O239    O    0.12526   0.71957   0.30587   1.000
    O240    O    0.60707   0.26066   0.32801   1.000
    O241    O    0.26752   0.58953   0.33047   1.000
    O242    O    0.21861   0.20617   0.33849   1.000
    O243    O    0.09303   0.04418   0.31925   1.000
    O244    O    0.12506   0.10653   0.34461   1.000
    O245    O    0.86319   0.01776   0.31945   1.000
    O246    O    0.00888   0.96411   0.32005   1.000
    O247    O    0.01883   0.84399   0.32185   1.000
    O248    O    0.89100   0.89223   0.35931   1.000
    O249    O    0.93988   0.93942   0.37680   1.000
    O250    O    0.78784   0.13515   0.34680   1.000
    O251    O    0.12237   0.75778   0.35367   1.000
    O252    O    0.33215   0.31407   0.37732   1.000
    O253    O    0.64963   0.27016   0.37193   1.000
    O254    O    0.52351   0.35976   0.38294   1.000
    O255    O    0.26478   0.62754   0.37831   1.000
    O256    O    0.36601   0.50899   0.38513   1.000
    O257    O    0.17659   0.15947   0.36773   1.000
    O258    O    0.22789   0.21114   0.38844   1.000
    O259    O    0.74018   0.20708   0.38132   1.000
    O260    O    0.82161   0.14735   0.38767   1.000
    O261    O    0.13107   0.10956   0.40396   1.000
    O262    O    0.19173   0.71162   0.38998   1.000
    O263    O    0.12430   0.78799   0.39784   1.000
    O264    O    0.69096   0.27765   0.41962   1.000
    O265    O    0.26181   0.66582   0.42896   1.000
    O266    O    0.86222   0.87562   0.42324   1.000
    O267    O    0.28246   0.26409   0.40956   1.000
    O268    O    0.33225   0.31399   0.43045   1.000
    O269    O    0.39418   0.37977   0.43398   1.000
    O270    O    0.52159   0.41180   0.43890   1.000
    O271    O    0.41112   0.50853   0.44344   1.000
    O272    O    0.23280   0.21349   0.44520   1.000
    O273    O    0.09258   0.06747   0.43933   1.000
    O274    O    0.13531   0.11293   0.46099   1.000
    O275    O    0.91111   0.92281   0.44073   1.000
    O276    O    0.86332   0.88111   0.47947   1.000
    O277    O    0.64483   0.34803   0.45757   1.000
    O278    O    0.72507   0.28446   0.47184   1.000
    O279    O    0.33256   0.62479   0.46726   1.000
    O280    O    0.26123   0.69904   0.48260   1.000
    O281    O    0.61049   0.40325   0.49544   1.000
    O282    O    0.38955   0.59672   0.50453   1.000
    O283    O    0.18574   0.16518   0.48153   1.000
    O284    O    0.23250   0.21249   0.49635   1.000
    O285    O    0.76753   0.78749   0.50363   1.000
    O286    O    0.13672   0.11887   0.52051   1.000
    O287    O    0.73881   0.30093   0.51738   1.000
    O288    O    0.27497   0.71551   0.52814   1.000
    O289    O    0.81429   0.83480   0.51845   1.000
    O290    O    0.86472   0.88705   0.53899   1.000
    O291    O    0.76724   0.78649   0.55478   1.000
    O292    O    0.66749   0.37518   0.53272   1.000
    O293    O    0.58892   0.49144   0.55653   1.000
    O294    O    0.35521   0.65193   0.54241   1.000
    O295    O    0.47845   0.58817   0.56107   1.000
    O296    O    0.73824   0.33415   0.57102   1.000
    O297    O    0.60586   0.62020   0.56599   1.000
    O298    O    0.66778   0.68599   0.56953   1.000
    O299    O    0.30908   0.72231   0.58036   1.000
    O300    O    0.08893   0.07717   0.55925   1.000
    O301    O    0.13782   0.12436   0.57672   1.000
    O302    O    0.90746   0.93251   0.56065   1.000
    O303    O    0.06016   0.06055   0.62273   1.000
    O304    O    0.86896   0.89041   0.59602   1.000
    O305    O    0.71757   0.73590   0.59042   1.000
    O306    O    0.77214   0.78884   0.61152   1.000
    O307    O    0.87575   0.21198   0.60214   1.000
    O308    O    0.63403   0.49098   0.61482   1.000
    O309    O    0.47653   0.64021   0.61703   1.000
    O310    O    0.66789   0.68591   0.62266   1.000
    O311    O    0.17843   0.85261   0.61231   1.000
    O312    O    0.10905   0.10774   0.64019   1.000
    O313    O    0.80832   0.28835   0.60999   1.000
    O314    O    0.73526   0.37243   0.62165   1.000
    O315    O    0.25986   0.79288   0.61866   1.000
    O316    O    0.35041   0.72981   0.62805   1.000
    O317    O    0.87768   0.24219   0.64631   1.000
    O318    O    0.82344   0.84051   0.63223   1.000
    O319    O    0.87497   0.89345   0.65537   1.000
    O320    O    0.21220   0.86481   0.65318   1.000
    O321    O    0.78142   0.79381   0.66147   1.000
    O322    O    0.73253   0.41045   0.66947   1.000
    O323    O    0.39297   0.73930   0.67193   1.000
    O324    O    0.98122   0.15598   0.67769   1.000
    O325    O    0.87478   0.28041   0.69411   1.000
    O326    O    0.99116   0.03587   0.67944   1.000
    O327    O    0.90700   0.95580   0.68069   1.000
    O328    O    0.13685   0.98221   0.68008   1.000
    O329    O    0.25550   0.87496   0.69667   1.000
    O330    O    0.10286   0.08918   0.72253   1.000
    O331    O    0.89606   0.88322   0.70966   1.000
    O332    O    0.80269   0.36458   0.70562   1.000
    O333    O    0.73588   0.44177   0.71285   1.000
    O334    O    0.34572   0.81252   0.70603   1.000
    O335    O    0.42800   0.75352   0.71151   1.000
    O336    O    0.86820   0.31887   0.73662   1.000
    O337    O    0.29894   0.88180   0.73466   1.000
    O338    O    0.91300   0.89531   0.77725   1.000
    O339    O    0.68217   0.13165   0.76312   1.000
    O340    O    0.11859   0.70014   0.76557   1.000
    O341    O    0.11453   0.10662   0.79017   1.000
    O342    O    0.55888   0.26351   0.78724   1.000
    O343    O    0.24726   0.57120   0.78840   1.000
    O344    O    0.18801   0.65361   0.79398   1.000
    O345    O    0.12529   0.74395   0.80350   1.000
    O346    O    0.63615   0.19692   0.79433   1.000
    O347    O    0.72043   0.12506   0.80565   1.000
    O348    O    0.26137   0.60668   0.82788   1.000
    O349    O    0.58990   0.26684   0.83069   1.000
    O350    O    0.20515   0.21969   0.83849   1.000
    O351    O    0.04325   0.09409   0.81929   1.000
    O352    O    0.10519   0.12657   0.84458   1.000
    O353    O    0.01823   0.86261   0.81994   1.000
    O354    O    0.96435   0.00868   0.82050   1.000
    O355    O    0.84480   0.01838   0.82209   1.000
    O356    O    0.89277   0.89053   0.85966   1.000
    O357    O    0.94002   0.93933   0.87719   1.000
    O358    O    0.13527   0.78770   0.84690   1.000
    O359    O    0.75841   0.12217   0.85347   1.000
    O360    O    0.31429   0.33197   0.87734   1.000
    O361    O    0.27074   0.64968   0.87171   1.000
    O362    O    0.36045   0.52311   0.88284   1.000
    O363    O    0.62765   0.26409   0.87857   1.000
    O364    O    0.50941   0.36530   0.88531   1.000
    O365    O    0.15844   0.17772   0.86770   1.000
    O366    O    0.21051   0.22861   0.88844   1.000
    O367    O    0.20736   0.74035   0.88122   1.000
    O368    O    0.14732   0.82186   0.88770   1.000
    O369    O    0.10860   0.13216   0.90396   1.000
    O370    O    0.71187   0.19128   0.89003   1.000
    O371    O    0.78839   0.12413   0.89769   1.000
    O372    O    0.27815   0.69136   0.91935   1.000
    O373    O    0.66569   0.26110   0.92922   1.000
    O374    O    0.87595   0.86195   0.92318   1.000
    O375    O    0.26394   0.28269   0.90960   1.000
    O376    O    0.31408   0.33226   0.93047   1.000
    O377    O    0.38017   0.39384   0.93400   1.000
    O378    O    0.41256   0.52162   0.93860   1.000
    O379    O    0.50854   0.41032   0.94375   1.000
    O380    O    0.21321   0.23316   0.94525   1.000
    O381    O    0.06666   0.09354   0.93935   1.000
    O382    O    0.11233   0.13603   0.96102   1.000
    O383    O    0.92321   0.91076   0.94071   1.000
    O384    O    0.34873   0.64549   0.95708   1.000
    O385    O    0.28487   0.72565   0.97156   1.000
    O386    O    0.62429   0.33171   0.96772   1.000
    O387    O    0.16487   0.18614   0.98157   1.000
loop_
    _geom_bond_atom_site_label_1
    _geom_bond_atom_site_label_2
    _geom_bond_distance
    _geom_bond_site_symmetry_2
    _ccdc_geom_bond_type
    C123   O172      0.67348      .   S
    C48    O172      0.67348      .   S
    C123   O173      0.67433  1_554   S
    C54    O173      0.67433      .   S
    C75    O174      0.69894      .   S
    C77    O174      0.69894      .   S
    C75    O175      0.70125      .   S
    C76    O175      0.70125      .   S
    C75    O176      0.75101  1_554   S
    C81    O176      0.75101      .   S
    C41    O177      0.54378  1_554   S
    C115   O177      0.54378      .   S
    C77    O178      0.70015      .   S
    C78    O178      0.70015      .   S
    C77    O179      0.54379      .   S
    C23    O179      0.54379  1_556   S
    C138   O180      0.67543      .   S
    C92    O180      0.67543      .   S
    C138   O181      1.18034      .   S
    C1     O181      1.18034      .   S
    C138   O182      0.67736  1_554   S
    C136   O182      0.67736      .   S
    C122   O183      0.67609      .   S
    C48    O183      0.67609      .   S
    C122   O184      1.16501      .   S
    C1     O184      1.16501      .   S
    C122   O185      0.67685      .   S
    C124   O185      0.67685  1_556   S
    C92    O186      0.72488      .   S
    C91    O186      0.72488      .   S
    C92    O187      0.67434      .   S
    C137   O187      0.67434  1_556   S
    C158   O188      1.11007      .   S
    C1     O188      1.11007      .   S
    C158   O189      0.64552      .   S
    C74    O189      0.64552      .   S
    C48    O190      0.72468      .   S
    C47    O190      0.72468      .   S
    C119   O191      0.63754      .   S
    C168   O191      0.63754      .   S
    C119   O192      0.64059      .   S
    C171   O192      0.64059      .   S
    C119   O193      0.75044      .   S
    C113   O193      0.75044  1_556   S
    C22    O194      0.54508      .   S
    C76    O194      0.54508      .   S
    C168   O195      1.25861      .   S
    C0     O195      1.25861      .   S
    C76    O196      0.70279      .   S
    C70    O196      0.70279      .   S
    C78    O197      0.74974      .   S
    C74    O197      0.74974      .   S
    C78    O198      0.69945      .   S
    C68    O198      0.69945      .   S
    C30    O199      0.54577      .   S
    C90    O199      0.54577      .   S
    C1     O200      1.27109      .   S
    C140   O200      1.27109      .   S
    C1     O201      1.29427      .   S
    C121   O201      1.29427      .   S
    C74    O202      0.63433      .   S
    C157   O202      0.63433      .   S
    C8     O203      0.54517      .   S
    C44    O203      0.54517      .   S
    C171   O204      1.17052      .   S
    C0     O204      1.17052      .   S
    C91    O205      0.70099      .   S
    C90    O205      0.70099      .   S
    C91    O206      0.67607      .   S
    C140   O206      0.67607      .   S
    C47    O207      0.70100      .   S
    C44    O207      0.70100      .   S
    C47    O208      0.67397      .   S
    C121   O208      0.67397      .   S
    C90    O209      0.66847      .   S
    C139   O209      0.66847      .   S
    C70    O210      0.70247      .   S
    C68    O210      0.70247      .   S
    C70    O211      0.75209      .   S
    C69    O211      0.75209      .   S
    C44    O212      0.66822      .   S
    C120   O212      0.66822      .   S
    C68    O213      0.54433      .   S
    C20    O213      0.54433      .   S
    C140   O214      0.67218      .   S
    C99    O214      0.67218      .   S
    C121   O215      0.67469      .   S
    C45    O215      0.67469      .   S
    C139   O216      1.23217      .   S
    C0     O216      1.23217  1_545   S
    C139   O217      0.67427      .   S
    C98    O217      0.67427      .   S
    C155   O218      1.18531  1_655   S
    C0     O218      1.18531  1_545   S
    C155   O219      0.63589      .   S
    C69    O219      0.63589      .   S
    C120   O220      1.23040      .   S
    C0     O220      1.23040  1_455   S
    C120   O221      0.67463      .   S
    C46    O221      0.67463      .   S
    C0     O222      1.12302      .   S
    C148   O222      1.12302      .   S
    C69    O223      0.64116      .   S
    C154   O223      0.64116      .   S
    C99    O224      0.69814      .   S
    C98    O224      0.69814      .   S
    C99    O225      0.54467      .   S
    C34    O225      0.54467      .   S
    C45    O226      0.69807      .   S
    C46    O226      0.69807      .   S
    C45    O227      0.54522      .   S
    C9     O227      0.54522      .   S
    C98    O228      0.54464      .   S
    C33    O228      0.54464      .   S
    C46    O229      0.54506      .   S
    C10    O229      0.54506      .   S
    C154   O230      1.11367      .   S
    C2     O230      1.11367      .   S
    C42    O231      0.54502      .   S
    C117   O231      0.54502      .   S
    C19    O232      0.54510      .   S
    C65    O232      0.54510      .   S
    C148   O233      0.64114      .   S
    C50    O233      0.64114      .   S
    C43    O234      0.54500      .   S
    C118   O234      0.54500      .   S
    C18    O235      0.54511      .   S
    C64    O235      0.54511      .   S
    C65    O236      0.69804      .   S
    C64    O236      0.69804      .   S
    C65    O237      0.67460      .   S
    C127   O237      0.67460      .   S
    C117   O238      0.69813      .   S
    C118   O238      0.69813      .   S
    C117   O239      0.67429      .   S
    C146   O239      0.67429      .   S
    C64    O240      0.67227      .   S
    C128   O240      0.67227      .   S
    C118   O241      0.67188      .   S
    C147   O241      0.67188      .   S
    C11    O242      0.54436      .   S
    C49    O242      0.54436      .   S
    C50    O243      0.63607      .   S
    C149   O243      0.63607      .   S
    C50    O244      0.75193      .   S
    C51    O244      0.75193      .   S
    C2     O245      1.23268  1_565   S
    C127   O245      1.23268      .   S
    C2     O246      1.18718  1_655   S
    C149   O246      1.18718  1_545   S
    C2     O247      1.23042  1_655   S
    C146   O247      1.23042      .   S
    C2     O248      1.17750      .   S
    C165   O248      1.17750      .   S
    C2     O249      1.26676      .   S
    C162   O249      1.26676      .   S
    C127   O250      0.66826      .   S
    C63    O250      0.66826      .   S
    C146   O251      0.66842      .   S
    C109   O251      0.66842      .   S
    C151   O252      0.63423      .   S
    C55    O252      0.63423      .   S
    C128   O253      0.67583      .   S
    C66    O253      0.67583      .   S
    C128   O254      1.29378      .   S
    C3     O254      1.29378      .   S
    C147   O255      0.67618      .   S
    C110   O255      0.67618      .   S
    C147   O256      1.27346      .   S
    C3     O256      1.27346      .   S
    C49    O257      0.70244      .   S
    C51    O257      0.70244      .   S
    C49    O258      0.69957      .   S
    C59    O258      0.69957      .   S
    C63    O259      0.70100      .   S
    C66    O259      0.70100      .   S
    C63    O260      0.54516      .   S
    C17    O260      0.54516      .   S
    C51    O261      0.70223      .   S
    C57    O261      0.70223      .   S
    C109   O262      0.70089      .   S
    C110   O262      0.70089      .   S
    C109   O263      0.54577      .   S
    C39    O263      0.54577      .   S
    C66    O264      0.72465      .   S
    C67    O264      0.72465      .   S
    C110   O265      0.72496      .   S
    C111   O265      0.72496      .   S
    C165   O266      0.63994      .   S
    C100   O266      0.63994      .   S
    C55    O267      0.74977      .   S
    C59    O267      0.74977      .   S
    C55    O268      0.64562      .   S
    C152   O268      0.64562      .   S
    C3     O269      1.11016      .   S
    C152   O269      1.11016      .   S
    C3     O270      1.16499      .   S
    C129   O270      1.16499      .   S
    C3     O271      1.18009      .   S
    C145   O271      1.18009      .   S
    C59    O272      0.70012      .   S
    C58    O272      0.70012      .   S
    C57    O273      0.54514      .   S
    C13    O273      0.54514      .   S
    C57    O274      0.70172      .   S
    C56    O274      0.70172      .   S
    C162   O275      0.63767      .   S
    C100   O275      0.63767      .   S
    C100   O276      0.75086      .   S
    C94    O276      0.75086      .   S
    C67    O277      0.67599      .   S
    C129   O277      0.67599      .   S
    C67    O278      0.67352      .   S
    C130   O278      0.67352      .   S
    C111   O279      0.67544      .   S
    C145   O279      0.67544      .   S
    C111   O280      0.67421      .   S
    C144   O280      0.67421      .   S
    C129   O281      0.67673      .   S
    C131   O281      0.67673      .   S
    C145   O282      0.67673      .   S
    C143   O282      0.67673      .   S
    C58    O283      0.69893      .   S
    C56    O283      0.69893      .   S
    C58    O284      0.54370      .   S
    C14    O284      0.54370      .   S
    C32    O285      0.54369      .   S
    C96    O285      0.54369      .   S
    C56    O286      0.75086      .   S
    C62    O286      0.75086      .   S
    C130   O287      0.67414      .   S
    C73    O287      0.67414      .   S
    C144   O288      0.67344      .   S
    C105   O288      0.67344      .   S
    C94    O289      0.69894      .   S
    C96    O289      0.69894      .   S
    C94    O290      0.70172      .   S
    C95    O290      0.70172      .   S
    C96    O291      0.70012      .   S
    C97    O291      0.70012      .   S
    C131   O292      0.67544      .   S
    C73    O292      0.67544      .   S
    C131   O293      1.18003      .   S
    C7     O293      1.18003      .   S
    C143   O294      0.67599      .   S
    C105   O294      0.67599      .   S
    C143   O295      1.16493      .   S
    C7     O295      1.16493      .   S
    C73    O296      0.72497      .   S
    C72    O296      0.72497      .   S
    C164   O297      1.11009      .   S
    C7     O297      1.11009      .   S
    C164   O298      0.64552      .   S
    C93    O298      0.64552      .   S
    C105   O299      0.72474      .   S
    C104   O299      0.72474      .   S
    C62    O300      0.63766      .   S
    C150   O300      0.63766      .   S
    C62    O301      0.63943      .   S
    C153   O301      0.63943      .   S
    C31    O302      0.54513      .   S
    C95    O302      0.54513      .   S
    C150   O303      1.25743      .   S
    C6     O303      1.25743      .   S
    C95    O304      0.70214      .   S
    C89    O304      0.70214      .   S
    C97    O305      0.74977      .   S
    C93    O305      0.74977      .   S
    C97    O306      0.69922      .   S
    C87    O306      0.69922      .   S
    C21    O307      0.54571      .   S
    C71    O307      0.54571      .   S
    C7     O308      1.27337      .   S
    C133   O308      1.27337      .   S
    C7     O309      1.29388      .   S
    C142   O309      1.29388      .   S
    C93    O310      0.63432      .   S
    C163   O310      0.63432      .   S
    C35    O311      0.54522      .   S
    C101   O311      0.54522      .   S
    C153   O312      1.17154      .   S
    C6     O312      1.17154      .   S
    C72    O313      0.70089      .   S
    C71    O313      0.70089      .   S
    C72    O314      0.67598      .   S
    C133   O314      0.67598      .   S
    C104   O315      0.70101      .   S
    C101   O315      0.70101      .   S
    C104   O316      0.67582      .   S
    C142   O316      0.67582      .   S
    C71    O317      0.66851      .   S
    C132   O317      0.66851      .   S
    C89    O318      0.70242      .   S
    C87    O318      0.70242      .   S
    C89    O319      0.75202      .   S
    C88    O319      0.75202      .   S
    C101   O320      0.66816      .   S
    C141   O320      0.66816      .   S
    C87    O321      0.54474      .   S
    C29    O321      0.54474      .   S
    C133   O322      0.67188      .   S
    C80    O322      0.67188      .   S
    C142   O323      0.67154      .   S
    C102   O323      0.67154      .   S
    C132   O324      1.22985      .   S
    C6     O324      1.22985  1_455   S
    C132   O325      0.67423      .   S
    C79    O325      0.67423      .   S
    C161   O326      1.18614  1_565   S
    C6     O326      1.18614  1_455   S
    C161   O327      0.63609      .   S
    C88    O327      0.63609      .   S
    C141   O328      1.23236      .   S
    C6     O328      1.23236  1_545   S
    C141   O329      0.67465      .   S
    C103   O329      0.67465      .   S
    C6     O330      1.12153      .   S
    C166   O330      1.12153      .   S
    C88    O331      0.64113      .   S
    C160   O331      0.64113      .   S
    C80    O332      0.69821      .   S
    C79    O332      0.69821      .   S
    C80    O333      0.54507      .   S
    C25    O333      0.54507      .   S
    C102   O334      0.69826      .   S
    C103   O334      0.69826      .   S
    C102   O335      0.54558      .   S
    C36    O335      0.54558      .   S
    C79    O336      0.54435      .   S
    C24    O336      0.54435      .   S
    C103   O337      0.54509      .   S
    C37    O337      0.54509      .   S
    C160   O338      1.12302      .   S
    C4     O338      1.12302      .   S
    C15    O339      0.54502      .   S
    C60    O339      0.54502      .   S
    C28    O340      0.54508      .   S
    C84    O340      0.54508      .   S
    C166   O341      0.64108      .   S
    C107   O341      0.64108      .   S
    C16    O342      0.54500      .   S
    C61    O342      0.54500      .   S
    C27    O343      0.54522      .   S
    C83    O343      0.54522      .   S
    C84    O344      0.69807      .   S
    C83    O344      0.69807      .   S
    C84    O345      0.67463      .   S
    C134   O345      0.67463      .   S
    C60    O346      0.69814      .   S
    C61    O346      0.69814      .   S
    C60    O347      0.67407      .   S
    C125   O347      0.67407      .   S
    C83    O348      0.67202      .   S
    C135   O348      0.67202      .   S
    C61    O349      0.67227      .   S
    C126   O349      0.67227      .   S
    C38    O350      0.54358      .   S
    C106   O350      0.54358      .   S
    C107   O351      0.63589      .   S
    C167   O351      0.63589      .   S
    C107   O352      0.75174      .   S
    C108   O352      0.75174      .   S
    C4     O353      1.23037  1_655   S
    C134   O353      1.23037      .   S
    C4     O354      1.18528  1_565   S
    C167   O354      1.18528  1_455   S
    C4     O355      1.23217  1_565   S
    C125   O355      1.23217      .   S
    C4     O356      1.17043      .   S
    C159   O356      1.17043      .   S
    C4     O357      1.25862      .   S
    C156   O357      1.25862      .   S
    C134   O358      0.66787      .   S
    C82    O358      0.66787      .   S
    C125   O359      0.66885      .   S
    C52    O359      0.66885      .   S
    C169   O360      0.63423      .   S
    C112   O360      0.63423      .   S
    C135   O361      0.67586      .   S
    C85    O361      0.67586      .   S
    C135   O362      1.29571      .   S
    C5     O362      1.29571      .   S
    C126   O363      0.67600      .   S
    C53    O363      0.67600      .   S
    C126   O364      1.27103      .   S
    C5     O364      1.27103      .   S
    C106   O365      0.70249      .   S
    C108   O365      0.70249      .   S
    C106   O366      0.70025      .   S
    C116   O366      0.70025      .   S
    C82    O367      0.70111      .   S
    C85    O367      0.70111      .   S
    C82    O368      0.54543      .   S
    C26    O368      0.54543      .   S
    C108   O369      0.70260      .   S
    C114   O369      0.70260      .   S
    C52    O370      0.70097      .   S
    C53    O370      0.70097      .   S
    C52    O371      0.54577      .   S
    C12    O371      0.54577      .   S
    C85    O372      0.72469      .   S
    C86    O372      0.72469      .   S
    C53    O373      0.72497      .   S
    C54    O373      0.72497      .   S
    C159   O374      0.64009      .   S
    C81    O374      0.64009      .   S
    C112   O375      0.74975      .   S
    C116   O375      0.74975      .   S
    C112   O376      0.64553      .   S
    C170   O376      0.64553      .   S
    C5     O377      1.11007      .   S
    C170   O377      1.11007      .   S
    C5     O378      1.16478      .   S
    C136   O378      1.16478      .   S
    C5     O379      1.18038      .   S
    C124   O379      1.18038      .   S
    C116   O380      0.70014      .   S
    C115   O380      0.70014      .   S
    C114   O381      0.54513      .   S
    C40    O381      0.54513      .   S
    C114   O382      0.70179      .   S
    C113   O382      0.70179      .   S
    C156   O383      0.63748      .   S
    C81    O383      0.63748      .   S
    C86    O384      0.67596      .   S
    C136   O384      0.67596      .   S
    C86    O385      0.67348      .   S
    C137   O385      0.67348      .   S
    C54    O386      0.67543      .   S
    C124   O386      0.67543      .   S
    C115   O387      0.69893      .   S
    C113   O387      0.69893      .   S
