# CIF file generated by openbabel 2.4.90, see http://openbabel.sf.net
data_I
_chemical_name_common ''
_cell_length_a 6.254
_cell_length_b 15.845
_cell_length_c 16.644
_cell_angle_alpha 104.357
_cell_angle_beta 90.128
_cell_angle_gamma 101.256
_space_group_name_H-M_alt 'P 1'
_space_group_name_Hall 'P 1'
loop_
    _symmetry_equiv_pos_as_xyz
    x,y,z
loop_
    _atom_site_label
    _atom_site_type_symbol
    _atom_site_fract_x
    _atom_site_fract_y
    _atom_site_fract_z
    _atom_site_occupancy
    N0      N    0.99998   0.49999   0.49999   1.000
    N1      N    0.99998   1.00000   0.99999   1.000
    N2      N    0.49999   0.49999   0.99999   1.000
    N3      N    0.99998   1.00000   0.49999   1.000
    Zr4     Zr   0.38924   0.99986   0.24966   1.000
    O5      O    0.31853   0.99940   0.32413   1.000
    O6      O    0.38582   0.86250   0.18119   1.000
    O7      O    0.31901   0.00035   0.17536   1.000
    O8      O    0.27332   0.13730   0.31839   1.000
    Zr9     Zr   0.61072   0.00015   0.75032   1.000
    O10     O    0.61414   0.13750   0.81879   1.000
    O11     O    0.68095   0.99965   0.82462   1.000
    O12     O    0.68143   0.00060   0.67585   1.000
    O13     O    0.72664   0.86270   0.68159   1.000
loop_
    _geom_bond_atom_site_label_1
    _geom_bond_atom_site_label_2
    _geom_bond_distance
    _geom_bond_site_symmetry_2
    _ccdc_geom_bond_type
    Zr4    O5        1.31816      .   S
    N3     O5        3.54341  1_655   S
    Zr4    O6        2.18817      .   S
    N2     O6        5.96801  1_556   S
    Zr4    O7        1.31386  1_565   S
    N1     O7        3.53018  1_666   S
    Zr4    O8        2.44155  1_565   S
    N0     O8        6.35052  1_655   S
    Zr9    O10       2.18807      .   S
    N2     O10       5.96783      .   S
    Zr9    O11       1.31384  1_545   S
    N1     O11       3.53018      .   S
    Zr9    O12       1.31817      .   S
    N3     O12       3.54339  1_565   S
    Zr9    O13       2.44164  1_545   S
    N0     O13       6.35065      .   S
