# CIF file generated by openbabel 2.4.90, see http://openbabel.sf.net
data_I
_chemical_name_common ''
_cell_length_a 6.254
_cell_length_b 15.845
_cell_length_c 16.644
_cell_angle_alpha 104.357
_cell_angle_beta 90.128
_cell_angle_gamma 101.256
_space_group_name_H-M_alt 'P 1'
_space_group_name_Hall 'P 1'
loop_
    _symmetry_equiv_pos_as_xyz
    x,y,z
loop_
    _atom_site_label
    _atom_site_type_symbol
    _atom_site_fract_x
    _atom_site_fract_y
    _atom_site_fract_z
    _atom_site_occupancy
    Zr0     Zr   0.38924   0.99986   0.24966   1.000
    Zr1     Zr   0.61072   0.00015   0.75032   1.000
    N2      N    0.99998   0.49999   0.49999   1.000
    O3      O    0.15740   0.27474   0.38712   1.000
    O4      O    0.84256   0.72525   0.61286   1.000
    N5      N    0.99998   1.00000   0.99999   1.000
    O6      O    0.24878   0.00085   0.10105   1.000
    O7      O    0.75117   0.99915   0.89892   1.000
    N8      N    0.49999   0.49999   0.99999   1.000
    O9      O    0.38240   0.72513   0.11272   1.000
    O10     O    0.61756   0.27486   0.88726   1.000
    N11     N    0.99998   1.00000   0.49999   1.000
    O12     O    0.24782   0.99894   0.39860   1.000
    O13     O    0.75214   0.00106   0.60138   1.000
loop_
    _geom_bond_atom_site_label_1
    _geom_bond_atom_site_label_2
    _geom_bond_distance
    _geom_bond_site_symmetry_2
    _ccdc_geom_bond_type
    N2     O3        3.91056  1_655   S
    Zr0    O3        4.88311  1_565   S
    N2     O4        3.91060      .   S
    Zr1    O4        4.88327  1_545   S
    N5     O6        2.28468  1_666   S
    Zr0    O6        2.62772  1_565   S
    N5     O7        2.28471      .   S
    Zr1    O7        2.62767  1_545   S
    N8     O9        3.80762  1_556   S
    Zr0    O9        4.37634      .   S
    N8     O10       3.80754      .   S
    Zr1    O10       4.37614      .   S
    N11    O12       2.29307  1_655   S
    Zr0    O12       2.63633      .   S
    N11    O13       2.29305  1_565   S
    Zr1    O13       2.63635      .   S
