# CIF file generated by openbabel 2.4.90, see http://openbabel.sf.net
data_I
_chemical_name_common ''
_cell_length_a 9.0155
_cell_length_b 9.0175
_cell_length_c 19.522
_cell_angle_alpha 90.006
_cell_angle_beta 90.004
_cell_angle_gamma 111.285
_space_group_name_H-M_alt 'P 1'
_space_group_name_Hall 'P 1'
loop_
    _symmetry_equiv_pos_as_xyz
    x,y,z
loop_
    _atom_site_label
    _atom_site_type_symbol
    _atom_site_fract_x
    _atom_site_fract_y
    _atom_site_fract_z
    _atom_site_occupancy
    O0      O    0.17059   0.34485   0.38615   1.000
    O1      O    0.94483   0.46200   0.33070   1.000
    O2      O    0.36376   0.62549   0.15239   1.000
    O3      O    0.41075   0.26191   0.38870   1.000
    O4      O    0.85581   0.63176   0.25000   1.000
    O5      O    0.06340   0.55373   0.15834   1.000
    O6      O    0.66044   0.36766   0.28702   1.000
    O7      O    0.17444   0.36811   0.10310   1.000
    O8      O    0.43991   0.54781   0.41102   1.000
    O9      O    0.30082   0.33044   0.49653   1.000
    O10     O    0.76347   0.59470   0.37220   1.000
    O11     O    0.32940   0.15541   0.88617   1.000
    O12     O    0.55502   0.03808   0.83072   1.000
    O13     O    0.13614   0.87468   0.65239   1.000
    O14     O    0.08918   0.23825   0.88869   1.000
    O15     O    0.64416   0.86843   0.75000   1.000
    O16     O    0.43651   0.94648   0.65836   1.000
    O17     O    0.83938   0.13266   0.78704   1.000
    O18     O    0.32545   0.13206   0.60311   1.000
    O19     O    0.06010   0.95238   0.91102   1.000
    O20     O    0.19910   0.16980   0.00000   1.000
    O21     O    0.73659   0.90557   0.87220   1.000
    O22     O    0.82936   0.65536   0.61662   1.000
    O23     O    0.05506   0.53811   0.67205   1.000
    O24     O    0.63628   0.37466   0.85036   1.000
    O25     O    0.58914   0.73822   0.61408   1.000
    O26     O    0.14413   0.36840   0.75276   1.000
    O27     O    0.93668   0.44662   0.84441   1.000
    O28     O    0.33943   0.63258   0.71575   1.000
    O29     O    0.82548   0.63210   0.89965   1.000
    O30     O    0.56008   0.45235   0.59174   1.000
    O31     O    0.69912   0.66977   0.50624   1.000
    O32     O    0.23653   0.40551   0.63057   1.000
    O33     O    0.67052   0.84485   0.11658   1.000
    O34     O    0.44482   0.96202   0.17205   1.000
    O35     O    0.86388   0.12546   0.35038   1.000
    O36     O    0.91065   0.76188   0.11407   1.000
    O37     O    0.35577   0.13175   0.25277   1.000
    O38     O    0.56353   0.05380   0.34440   1.000
    O39     O    0.16044   0.86763   0.21571   1.000
    O40     O    0.67449   0.86812   0.39965   1.000
    O41     O    0.93987   0.04781   0.09175   1.000
    O42     O    0.80082   0.83044   0.00623   1.000
    O43     O    0.26340   0.09467   0.13056   1.000
