# CIF file generated by openbabel 2.4.90, see http://openbabel.sf.net
data_I
_chemical_name_common ''
_cell_length_a 9.0155
_cell_length_b 9.0175
_cell_length_c 19.522
_cell_angle_alpha 90.006
_cell_angle_beta 90.004
_cell_angle_gamma 111.285
_space_group_name_H-M_alt 'P 1'
_space_group_name_Hall 'P 1'
loop_
    _symmetry_equiv_pos_as_xyz
    x,y,z
loop_
    _atom_site_label
    _atom_site_type_symbol
    _atom_site_fract_x
    _atom_site_fract_y
    _atom_site_fract_z
    _atom_site_occupancy
    Lv0     Lv   0.69444   0.98668   0.81002   1.000
    Lv1     Lv   0.16896   0.12870   0.92028   1.000
    Lv2     Lv   0.70127   0.99285   0.34365   1.000
    Lv3     Lv   0.33101   0.37152   0.42028   1.000
    Lv4     Lv   0.79882   0.50738   0.84365   1.000
    Lv5     Lv   0.30546   0.01353   0.19274   1.000
    Lv6     Lv   0.20117   0.49285   0.15910   1.000
    Lv7     Lv   0.19443   0.48664   0.69275   1.000
    Lv8     Lv   0.66893   0.62866   0.58249   1.000
    Lv9     Lv   0.80549   0.51354   0.31001   1.000
    Lv10    Lv   0.83096   0.87151   0.08247   1.000
    Lv11    Lv   0.29873   0.00735   0.65911   1.000
