# CIF file generated by openbabel 2.4.90, see http://openbabel.sf.net
data_I
_chemical_name_common ''
_cell_length_a 9.0155
_cell_length_b 9.0175
_cell_length_c 19.522
_cell_angle_alpha 90.006
_cell_angle_beta 90.004
_cell_angle_gamma 111.285
_space_group_name_H-M_alt 'P 1'
_space_group_name_Hall 'P 1'
loop_
    _symmetry_equiv_pos_as_xyz
    x,y,z
loop_
    _atom_site_label
    _atom_site_type_symbol
    _atom_site_fract_x
    _atom_site_fract_y
    _atom_site_fract_z
    _atom_site_occupancy
    Al0     Al   0.14192   0.16863   0.08235   1.000
    Al1     Al   0.49665   0.20644   0.31759   1.000
    Al2     Al   0.48256   0.19457   0.82653   1.000
    Al3     Al   0.35799   0.33154   0.58236   1.000
    Al4     Al   0.00333   0.29380   0.81759   1.000
    Al5     Al   0.98256   0.69456   0.67625   1.000
    Al6     Al   0.85804   0.83159   0.92040   1.000
    Al7     Al   0.50328   0.79375   0.68518   1.000
    Al8     Al   0.51739   0.80562   0.17623   1.000
    Al9     Al   0.64198   0.66865   0.42040   1.000
    Al10    Al   0.99657   0.70642   0.18516   1.000
    O11     O    0.07000   0.27021   0.24163   1.000
    O12     O    0.21620   0.41815   0.23291   1.000
    Al13    Al   0.01741   0.30562   0.32651   1.000
    O14     O    0.42997   0.22998   0.74165   1.000
    O15     O    0.28370   0.08211   0.73292   1.000
    O16     O    0.93000   0.73000   0.76113   1.000
    O17     O    0.78376   0.58209   0.76984   1.000
    O18     O    0.57003   0.77021   0.26110   1.000
    O19     O    0.71627   0.91810   0.26984   1.000
loop_
    _geom_bond_atom_site_label_1
    _geom_bond_atom_site_label_2
    _geom_bond_distance
    _geom_bond_site_symmetry_2
    _ccdc_geom_bond_type
    Al8    O18       1.78393      .   S
    O12    O11       1.50646      .   S
    O11    Al13      1.78392      .   S
    O18    O19       1.50644      .   S
    Al5    O16       1.78392      .   S
    O15    O14       1.50646      .   S
    O14    Al2       1.78393      .   S
    O16    O17       1.50649      .   S
