# CIF file generated by openbabel 2.4.90, see http://openbabel.sf.net
data_I
_chemical_name_common ''
_cell_length_a 9.0155
_cell_length_b 9.0175
_cell_length_c 19.522
_cell_angle_alpha 90.006
_cell_angle_beta 90.004
_cell_angle_gamma 111.285
_space_group_name_H-M_alt 'P 1'
_space_group_name_Hall 'P 1'
loop_
    _symmetry_equiv_pos_as_xyz
    x,y,z
loop_
    _atom_site_label
    _atom_site_type_symbol
    _atom_site_fract_x
    _atom_site_fract_y
    _atom_site_fract_z
    _atom_site_occupancy
    C0      C    0.01741   0.30562   0.32651   1.000
    C1      C    0.14192   0.16863   0.08235   1.000
    C2      C    0.49665   0.20644   0.31759   1.000
    C3      C    0.48256   0.19457   0.82653   1.000
    C4      C    0.35799   0.33154   0.58236   1.000
    C5      C    0.00333   0.29380   0.81759   1.000
    C6      C    0.98256   0.69456   0.67625   1.000
    C7      C    0.85804   0.83159   0.92040   1.000
    C8      C    0.50328   0.79375   0.68518   1.000
    C9      C    0.51739   0.80562   0.17623   1.000
    C10     C    0.64198   0.66865   0.42040   1.000
    C11     C    0.99657   0.70642   0.18516   1.000
    C12     C    0.33101   0.37152   0.42028   1.000
    C13     C    0.80549   0.51354   0.31001   1.000
    C14     C    0.20117   0.49285   0.15910   1.000
    C15     C    0.16896   0.12870   0.92028   1.000
    C16     C    0.69444   0.98668   0.81002   1.000
    C17     C    0.29873   0.00735   0.65911   1.000
    C18     C    0.66893   0.62866   0.58249   1.000
    C19     C    0.19443   0.48664   0.69275   1.000
    C20     C    0.79882   0.50738   0.84365   1.000
    C21     C    0.83096   0.87151   0.08247   1.000
    C22     C    0.30546   0.01353   0.19274   1.000
    C23     C    0.70127   0.99285   0.34365   1.000
    C24     C    0.07000   0.27021   0.24163   1.000
    C25     C    0.17059   0.34485   0.38615   1.000
    C26     C    0.21620   0.41815   0.23291   1.000
    C27     C    0.94483   0.46200   0.33070   1.000
    C28     C    0.36376   0.62549   0.15239   1.000
    C29     C    0.41075   0.26191   0.38870   1.000
    C30     C    0.85581   0.63176   0.25000   1.000
    C31     C    0.06340   0.55373   0.15834   1.000
    C32     C    0.66044   0.36766   0.28702   1.000
    C33     C    0.17444   0.36811   0.10310   1.000
    C34     C    0.43991   0.54781   0.41102   1.000
    C35     C    0.30082   0.33044   0.49653   1.000
    C36     C    0.76347   0.59470   0.37220   1.000
    C37     C    0.42997   0.22998   0.74165   1.000
    C38     C    0.32940   0.15541   0.88617   1.000
    C39     C    0.28370   0.08211   0.73292   1.000
    C40     C    0.55502   0.03808   0.83072   1.000
    C41     C    0.13614   0.87468   0.65239   1.000
    C42     C    0.08918   0.23825   0.88869   1.000
    C43     C    0.64416   0.86843   0.75000   1.000
    C44     C    0.43651   0.94648   0.65836   1.000
    C45     C    0.83938   0.13266   0.78704   1.000
    C46     C    0.32545   0.13206   0.60311   1.000
    C47     C    0.06010   0.95238   0.91102   1.000
    C48     C    0.19910   0.16980   0.00000   1.000
    C49     C    0.73659   0.90557   0.87220   1.000
    C50     C    0.93000   0.73000   0.76113   1.000
    C51     C    0.82936   0.65536   0.61662   1.000
    C52     C    0.78376   0.58209   0.76984   1.000
    C53     C    0.05506   0.53811   0.67205   1.000
    C54     C    0.63628   0.37466   0.85036   1.000
    C55     C    0.58914   0.73822   0.61408   1.000
    C56     C    0.14413   0.36840   0.75276   1.000
    C57     C    0.93668   0.44662   0.84441   1.000
    C58     C    0.33943   0.63258   0.71575   1.000
    C59     C    0.82548   0.63210   0.89965   1.000
    C60     C    0.56008   0.45235   0.59174   1.000
    C61     C    0.69912   0.66977   0.50624   1.000
    C62     C    0.23653   0.40551   0.63057   1.000
    C63     C    0.57003   0.77021   0.26110   1.000
    C64     C    0.67052   0.84485   0.11658   1.000
    C65     C    0.71627   0.91810   0.26984   1.000
    C66     C    0.44482   0.96202   0.17205   1.000
    C67     C    0.86388   0.12546   0.35038   1.000
    C68     C    0.91065   0.76188   0.11407   1.000
    C69     C    0.35577   0.13175   0.25277   1.000
    C70     C    0.56353   0.05380   0.34440   1.000
    C71     C    0.16044   0.86763   0.21571   1.000
    C72     C    0.67449   0.86812   0.39965   1.000
    C73     C    0.93987   0.04781   0.09175   1.000
    C74     C    0.80082   0.83044   0.00623   1.000
    C75     C    0.26340   0.09467   0.13056   1.000
    O76     O    0.17051   0.16921   0.04118   1.000
    O77     O    0.18403   0.14925   0.96014   1.000
    O78     O    0.81589   0.85097   0.04435   1.000
    O79     O    0.82943   0.83101   0.96331   1.000
    O80     O    0.04089   0.10822   0.08705   1.000
    O81     O    0.15818   0.26837   0.09273   1.000
    O82     O    0.20266   0.13165   0.10645   1.000
    O83     O    0.88541   0.95966   0.08711   1.000
    O84     O    0.87081   0.81670   0.09827   1.000
    O85     O    0.75074   0.85818   0.09952   1.000
    O86     O    0.18780   0.43048   0.13110   1.000
    O87     O    0.95361   0.73415   0.14961   1.000
    O88     O    0.59396   0.82524   0.14640   1.000
    O89     O    0.28443   0.05410   0.16165   1.000
    O90     O    0.28246   0.55917   0.15575   1.000
    O91     O    0.44058   0.71555   0.16431   1.000
    O92     O    0.13228   0.52329   0.15872   1.000
    O93     O    0.02998   0.63008   0.17175   1.000
    O94     O    0.20868   0.45550   0.19601   1.000
    O95     O    0.48110   0.88382   0.17414   1.000
    O96     O    0.37514   0.98778   0.18240   1.000
    O97     O    0.54371   0.78792   0.21867   1.000
    O98     O    0.07850   0.78703   0.20044   1.000
    O99     O    0.92619   0.66909   0.21758   1.000
    O100    O    0.23295   0.94058   0.20423   1.000
    O101    O    0.33062   0.07264   0.22275   1.000
    O102    O    0.14310   0.34418   0.23727   1.000
    O103    O    0.04370   0.28791   0.28407   1.000
    O104    O    0.83065   0.57265   0.28000   1.000
    O105    O    0.42621   0.16910   0.28518   1.000
    O106    O    0.64315   0.84416   0.26547   1.000
    O107    O    0.70877   0.95548   0.30675   1.000
    O108    O    0.73297   0.44060   0.29851   1.000
    O109    O    0.57855   0.28705   0.30230   1.000
    O110    O    0.87516   0.48777   0.32035   1.000
    O111    O    0.78448   0.55412   0.34111   1.000
    O112    O    0.53009   0.13012   0.33099   1.000
    O113    O    0.45370   0.23417   0.35314   1.000
    O114    O    0.98112   0.38381   0.32860   1.000
    O115    O    0.94065   0.21554   0.33844   1.000
    O116    O    0.09400   0.32523   0.35633   1.000
    O117    O    0.63240   0.02332   0.34403   1.000
    O118    O    0.78257   0.05915   0.34701   1.000
    O119    O    0.68788   0.93048   0.37165   1.000
    O120    O    0.70272   0.63167   0.39630   1.000
    O121    O    0.25080   0.35818   0.40321   1.000
    O122    O    0.37088   0.31671   0.40449   1.000
    O123    O    0.65824   0.76838   0.41002   1.000
    O124    O    0.38546   0.45966   0.41565   1.000
    O125    O    0.54094   0.60823   0.41571   1.000
    O126    O    0.31591   0.35098   0.45840   1.000
    O127    O    0.67055   0.66921   0.46332   1.000
    O128    O    0.32940   0.33099   0.53945   1.000
    O129    O    0.68402   0.64921   0.54437   1.000
    O130    O    0.45904   0.39194   0.58705   1.000
    O131    O    0.34172   0.23180   0.59274   1.000
    O132    O    0.29726   0.36852   0.60647   1.000
    O133    O    0.61450   0.54050   0.58712   1.000
    O134    O    0.62904   0.68344   0.59829   1.000
    O135    O    0.74915   0.64201   0.59956   1.000
    O136    O    0.31209   0.06971   0.63111   1.000
    O137    O    0.54621   0.76599   0.64963   1.000
    O138    O    0.90596   0.67496   0.64643   1.000
    O139    O    0.21548   0.44607   0.66166   1.000
    O140    O    0.21743   0.94102   0.65575   1.000
    O141    O    0.05935   0.78462   0.66432   1.000
    O142    O    0.36762   0.97691   0.65874   1.000
    O143    O    0.46990   0.87012   0.67177   1.000
    O144    O    0.29121   0.04473   0.69601   1.000
    O145    O    0.01881   0.61634   0.67415   1.000
    O146    O    0.12474   0.51238   0.68240   1.000
    O147    O    0.95628   0.71228   0.71869   1.000
    O148    O    0.42135   0.71316   0.70047   1.000
    O149    O    0.57372   0.83109   0.71759   1.000
    O150    O    0.26693   0.55961   0.70425   1.000
    O151    O    0.16928   0.42752   0.72276   1.000
    O152    O    0.35683   0.15605   0.73728   1.000
    O153    O    0.45626   0.21228   0.78409   1.000
    O154    O    0.66930   0.92755   0.78001   1.000
    O155    O    0.07373   0.33110   0.78518   1.000
    O156    O    0.85688   0.65605   0.76548   1.000
    O157    O    0.79129   0.54474   0.80675   1.000
    O158    O    0.76691   0.05967   0.79853   1.000
    O159    O    0.92135   0.21323   0.80232   1.000
    O160    O    0.62473   0.01238   0.82037   1.000
    O161    O    0.71552   0.94613   0.84111   1.000
    O162    O    0.97000   0.37021   0.83100   1.000
    O163    O    0.04625   0.26603   0.85314   1.000
    O164    O    0.51879   0.11632   0.82863   1.000
    O165    O    0.55942   0.28461   0.83845   1.000
    O166    O    0.40598   0.17499   0.85635   1.000
    O167    O    0.86775   0.47700   0.84403   1.000
    O168    O    0.71755   0.44102   0.84700   1.000
    O169    O    0.81215   0.56974   0.87165   1.000
    O170    O    0.79732   0.86858   0.89630   1.000
    O171    O    0.24918   0.14206   0.90322   1.000
    O172    O    0.12907   0.18347   0.90448   1.000
    O173    O    0.84176   0.73184   0.91003   1.000
    O174    O    0.11453   0.04054   0.91565   1.000
    O175    O    0.95907   0.89198   0.91571   1.000
loop_
    _geom_bond_atom_site_label_1
    _geom_bond_atom_site_label_2
    _geom_bond_distance
    _geom_bond_site_symmetry_2
    _ccdc_geom_bond_type
    C48    O76       0.84363      .   S
    C1     O76       0.84363      .   S
    C48    O77       0.79999  1_554   S
    C15    O77       0.79999      .   S
    C74    O78       0.76702      .   S
    C21    O78       0.76702      .   S
    C74    O79       0.87603  1_554   S
    C7     O79       0.87603      .   S
    C1     O80       0.88004      .   S
    C73    O80       0.88004  1_655   S
    C1     O81       0.88071      .   S
    C33    O81       0.88071      .   S
    C1     O82       0.87465      .   S
    C75    O82       0.87465      .   S
    C21    O83       0.77313      .   S
    C73    O83       0.77313  1_545   S
    C21    O84       0.77292      .   S
    C68    O84       0.77292      .   S
    C21    O85       0.76500      .   S
    C64    O85       0.76500      .   S
    C33    O86       0.76182      .   S
    C14    O86       0.76182      .   S
    C68    O87       0.87430      .   S
    C11    O87       0.87430      .   S
    C64    O88       0.87076      .   S
    C9     O88       0.87076      .   S
    C75    O89       0.76720      .   S
    C22    O89       0.76720      .   S
    C28    O90       0.76218      .   S
    C14    O90       0.76218      .   S
    C28    O91       0.88600      .   S
    C9     O91       0.88600      .   S
    C31    O92       0.76476      .   S
    C14    O92       0.76476      .   S
    C31    O93       0.88530      .   S
    C11    O93       0.88530  1_655   S
    C14    O94       0.80851      .   S
    C26    O94       0.80851      .   S
    C66    O95       0.87946      .   S
    C9     O95       0.87946      .   S
    C66    O96       0.77151      .   S
    C22    O96       0.77151  1_545   S
    C9     O97       0.89196      .   S
    C63    O97       0.89196      .   S
    C11    O98       0.87921  1_655   S
    C71    O98       0.87921      .   S
    C11    O99       0.87265      .   S
    C30    O99       0.87265      .   S
    C22    O100      0.77344  1_545   S
    C71    O100      0.77344      .   S
    C22    O101      0.76879      .   S
    C69    O101      0.76879      .   S
    C26    O102      0.75323      .   S
    C24    O102      0.75323      .   S
    C24    O103      0.89196      .   S
    C0     O103      0.89196      .   S
    C30    O104      0.76877      .   S
    C13    O104      0.76877      .   S
    C69    O105      0.87272      .   S
    C2     O105      0.87272      .   S
    C63    O106      0.75322      .   S
    C65    O106      0.75322      .   S
    C65    O107      0.80852      .   S
    C23    O107      0.80852      .   S
    C32    O108      0.77346      .   S
    C13    O108      0.77346      .   S
    C32    O109      0.87921      .   S
    C2     O109      0.87921      .   S
    C13    O110      0.77152      .   S
    C27    O110      0.77152      .   S
    C13    O111      0.76719      .   S
    C36    O111      0.76719      .   S
    C2     O112      0.88528      .   S
    C70    O112      0.88528      .   S
    C2     O113      0.87437      .   S
    C29    O113      0.87437      .   S
    C0     O114      0.87939  1_455   S
    C27    O114      0.87939      .   S
    C0     O115      0.88597  1_455   S
    C67    O115      0.88597      .   S
    C0     O116      0.87074      .   S
    C25    O116      0.87074      .   S
    C23    O117      0.76480  1_565   S
    C70    O117      0.76480      .   S
    C23    O118      0.76219  1_565   S
    C67    O118      0.76219      .   S
    C23    O119      0.76182      .   S
    C72    O119      0.76182      .   S
    C36    O120      0.87466      .   S
    C10    O120      0.87466      .   S
    C25    O121      0.76499      .   S
    C12    O121      0.76499      .   S
    C29    O122      0.77293      .   S
    C12    O122      0.77293      .   S
    C72    O123      0.88075      .   S
    C10    O123      0.88075      .   S
    C34    O124      0.77311      .   S
    C12    O124      0.77311      .   S
    C34    O125      0.88012      .   S
    C10    O125      0.88012      .   S
    C12    O126      0.76717      .   S
    C35    O126      0.76717      .   S
    C10    O127      0.87602      .   S
    C61    O127      0.87602      .   S
    C35    O128      0.87603      .   S
    C4     O128      0.87603      .   S
    C61    O129      0.76718      .   S
    C18    O129      0.76718      .   S
    C4     O130      0.88013      .   S
    C60    O130      0.88013      .   S
    C4     O131      0.88075      .   S
    C46    O131      0.88075      .   S
    C4     O132      0.87464      .   S
    C62    O132      0.87464      .   S
    C18    O133      0.77310      .   S
    C60    O133      0.77310      .   S
    C18    O134      0.77292      .   S
    C55    O134      0.77292      .   S
    C18    O135      0.76498      .   S
    C51    O135      0.76498      .   S
    C46    O136      0.76182      .   S
    C17    O136      0.76182      .   S
    C55    O137      0.87437      .   S
    C8     O137      0.87437      .   S
    C51    O138      0.87075      .   S
    C6     O138      0.87075      .   S
    C62    O139      0.76719      .   S
    C19    O139      0.76719      .   S
    C41    O140      0.76219      .   S
    C17    O140      0.76219  1_545   S
    C41    O141      0.88598      .   S
    C6     O141      0.88598  1_655   S
    C44    O142      0.76479      .   S
    C17    O142      0.76479  1_545   S
    C44    O143      0.88530      .   S
    C8     O143      0.88530      .   S
    C17    O144      0.80852      .   S
    C39    O144      0.80852      .   S
    C53    O145      0.87941      .   S
    C6     O145      0.87941  1_655   S
    C53    O146      0.77154      .   S
    C19    O146      0.77154      .   S
    C6     O147      0.89196      .   S
    C50    O147      0.89196      .   S
    C8     O148      0.87925      .   S
    C58    O148      0.87925      .   S
    C8     O149      0.87273      .   S
    C43    O149      0.87273      .   S
    C19    O150      0.77347      .   S
    C58    O150      0.77347      .   S
    C19    O151      0.76878      .   S
    C56    O151      0.76878      .   S
    C39    O152      0.75323      .   S
    C37    O152      0.75323      .   S
    C37    O153      0.89197      .   S
    C3     O153      0.89197      .   S
    C43    O154      0.76881      .   S
    C16    O154      0.76881      .   S
    C56    O155      0.87267      .   S
    C5     O155      0.87267      .   S
    C50    O156      0.75325      .   S
    C52    O156      0.75325      .   S
    C52    O157      0.80851      .   S
    C20    O157      0.80851      .   S
    C45    O158      0.77346      .   S
    C16    O158      0.77346  1_565   S
    C45    O159      0.87925      .   S
    C5     O159      0.87925  1_455   S
    C16    O160      0.77153  1_565   S
    C40    O160      0.77153      .   S
    C16    O161      0.76719      .   S
    C49    O161      0.76719      .   S
    C5     O162      0.88531  1_455   S
    C57    O162      0.88531      .   S
    C5     O163      0.87431      .   S
    C42    O163      0.87431      .   S
    C3     O164      0.87949      .   S
    C40    O164      0.87949      .   S
    C3     O165      0.88602      .   S
    C54    O165      0.88602      .   S
    C3     O166      0.87078      .   S
    C38    O166      0.87078      .   S
    C20    O167      0.76477      .   S
    C57    O167      0.76477      .   S
    C20    O168      0.76218      .   S
    C54    O168      0.76218      .   S
    C20    O169      0.76182      .   S
    C59    O169      0.76182      .   S
    C49    O170      0.87463      .   S
    C7     O170      0.87463      .   S
    C38    O171      0.76500      .   S
    C15    O171      0.76500      .   S
    C42    O172      0.77292      .   S
    C15    O172      0.77292      .   S
    C59    O173      0.88072      .   S
    C7     O173      0.88072      .   S
    C47    O174      0.77313  1_565   S
    C15    O174      0.77313      .   S
    C47    O175      0.88005  1_455   S
    C7     O175      0.88005      .   S
