# CIF file generated by openbabel 2.4.90, see http://openbabel.sf.net
data_I
_chemical_name_common ''
_cell_length_a 9.0155
_cell_length_b 9.0175
_cell_length_c 19.522
_cell_angle_alpha 90.006
_cell_angle_beta 90.004
_cell_angle_gamma 111.285
_space_group_name_H-M_alt 'P 1'
_space_group_name_Hall 'P 1'
loop_
    _symmetry_equiv_pos_as_xyz
    x,y,z
loop_
    _atom_site_label
    _atom_site_type_symbol
    _atom_site_fract_x
    _atom_site_fract_y
    _atom_site_fract_z
    _atom_site_occupancy
    N0      N    0.69444   0.98668   0.81002   1.000
    N1      N    0.16896   0.12870   0.92028   1.000
    N2      N    0.70127   0.99285   0.34365   1.000
    N3      N    0.33101   0.37152   0.42028   1.000
    N4      N    0.79882   0.50738   0.84365   1.000
    N5      N    0.30546   0.01353   0.19274   1.000
    N6      N    0.20117   0.49285   0.15910   1.000
    N7      N    0.19443   0.48664   0.69275   1.000
    N8      N    0.66893   0.62866   0.58249   1.000
    N9      N    0.80549   0.51354   0.31001   1.000
    N10     N    0.83096   0.87151   0.08247   1.000
    N11     N    0.29873   0.00735   0.65911   1.000
    Zr12    Zr   0.60123   0.83131   0.23572   1.000
    O13     O    0.53210   0.87712   0.20441   1.000
    O14     O    0.61674   0.83318   0.18361   1.000
    O15     O    0.50170   0.75092   0.19704   1.000
    O16     O    0.65312   0.90274   0.28046   1.000
    Zr17    Zr   0.10120   0.33132   0.26702   1.000
    O18     O    0.03209   0.37711   0.29833   1.000
    O19     O    0.11675   0.33318   0.31913   1.000
    O20     O    0.00173   0.25091   0.30572   1.000
    O21     O    0.15306   0.40275   0.22229   1.000
    Zr22    Zr   0.64198   0.66865   0.42040   1.000
    O23     O    0.65417   0.74345   0.41262   1.000
    O24     O    0.68754   0.64092   0.40233   1.000
    O25     O    0.56620   0.62333   0.41688   1.000
    O26     O    0.66340   0.66907   0.45259   1.000
    Zr27    Zr   0.49665   0.20644   0.31759   1.000
    O28     O    0.52173   0.14920   0.32764   1.000
    O29     O    0.44382   0.17843   0.29328   1.000
    O30     O    0.55807   0.26690   0.30612   1.000
    O31     O    0.46444   0.22724   0.34425   1.000
    Zr32    Zr   0.85804   0.83159   0.92040   1.000
    O33     O    0.93382   0.87688   0.91688   1.000
    O34     O    0.83659   0.83116   0.95259   1.000
    O35     O    0.81250   0.85933   0.90232   1.000
    O36     O    0.84583   0.75678   0.91262   1.000
    Zr37    Zr   0.89877   0.66889   0.73574   1.000
    O38     O    0.96785   0.62306   0.70442   1.000
    O39     O    0.88322   0.66702   0.68363   1.000
    O40     O    0.99826   0.74927   0.69705   1.000
    O41     O    0.84691   0.59747   0.78047   1.000
    Zr42    Zr   0.39874   0.16889   0.76703   1.000
    O43     O    0.34686   0.09746   0.72230   1.000
    O44     O    0.46782   0.12304   0.79835   1.000
    O45     O    0.38322   0.16704   0.81915   1.000
    O46     O    0.49830   0.24926   0.80572   1.000
    Zr47    Zr   0.99657   0.70642   0.18516   1.000
    O48     O    0.05802   0.76687   0.19662   1.000
    O49     O    0.96435   0.72722   0.15850   1.000
    O50     O    0.02163   0.64916   0.17510   1.000
    O51     O    0.94379   0.67842   0.20947   1.000
    Zr52    Zr   0.50328   0.79375   0.68518   1.000
    O53     O    0.53548   0.77293   0.65852   1.000
    O54     O    0.47824   0.85103   0.67512   1.000
    O55     O    0.44183   0.73331   0.69664   1.000
    O56     O    0.55611   0.82176   0.70949   1.000
    Zr57    Zr   0.14192   0.16863   0.08235   1.000
    O58     O    0.06615   0.12332   0.08588   1.000
    O59     O    0.18747   0.14089   0.10043   1.000
    O60     O    0.16336   0.16907   0.05147   1.000
    O61     O    0.15411   0.24343   0.09014   1.000
    Zr62    Zr   0.00333   0.29380   0.81759   1.000
    O63     O    0.05613   0.32178   0.79328   1.000
    O64     O    0.94185   0.23338   0.80614   1.000
    O65     O    0.03552   0.27297   0.84425   1.000
    O66     O    0.97833   0.35111   0.82765   1.000
    Zr67    Zr   0.35799   0.33154   0.58236   1.000
    O68     O    0.43377   0.37684   0.58588   1.000
    O69     O    0.33655   0.33113   0.55018   1.000
    O70     O    0.31245   0.35928   0.60044   1.000
    O71     O    0.34579   0.25673   0.59014   1.000
loop_
    _geom_bond_atom_site_label_1
    _geom_bond_atom_site_label_2
    _geom_bond_distance
    _geom_bond_site_symmetry_2
    _ccdc_geom_bond_type
    Zr12   O13       1.05816      .   S
    N5     O13       2.75038  1_545   S
    Zr12   O14       1.02629      .   S
    N10    O14       2.69512      .   S
    Zr12   O15       1.19528      .   S
    N6     O15       2.95410      .   S
    Zr12   O16       1.08513      .   S
    N2     O16       1.45397      .   S
    Zr17   O18       1.05796      .   S
    N9     O18       2.75017  1_655   S
    Zr17   O19       1.02618      .   S
    N3     O19       2.69531      .   S
    Zr17   O20       1.19531      .   S
    N2     O20       2.95393  1_665   S
    Zr17   O21       1.08514      .   S
    N6     O21       1.45399      .   S
    Zr22   O23       0.66057      .   S
    N2     O23       2.52156      .   S
    Zr22   O24       0.65600      .   S
    N9     O24       2.56608      .   S
    Zr22   O25       0.66009      .   S
    N3     O25       2.48215      .   S
    Zr22   O26       0.65702      .   S
    N8     O26       2.56504      .   S
    Zr27   O28       0.66396      .   S
    N2     O28       2.52233  1_565   S
    Zr27   O29       0.65454      .   S
    N5     O29       2.50441      .   S
    Zr27   O30       0.65941      .   S
    N9     O30       2.51518      .   S
    Zr27   O31       0.65578      .   S
    N3     O31       2.54524      .   S
    Zr32   O33       0.66004      .   S
    N1     O33       2.48191  1_445   S
    Zr32   O34       0.65702      .   S
    N10    O34       2.56469  1_554   S
    Zr32   O35       0.65597      .   S
    N0     O35       2.56631      .   S
    Zr32   O36       0.66054      .   S
    N4     O36       2.52144      .   S
    Zr37   O38       1.05798      .   S
    N7     O38       2.74997  1_455   S
    Zr37   O39       1.02613      .   S
    N8     O39       2.69527      .   S
    Zr37   O40       1.19528      .   S
    N11    O40       2.95400  1_445   S
    Zr37   O41       1.08505      .   S
    N4     O41       1.45388      .   S
    Zr42   O43       1.08509      .   S
    N11    O43       1.45393      .   S
    Zr42   O44       1.05807      .   S
    N0     O44       2.74991  1_565   S
    Zr42   O45       1.02626      .   S
    N1     O45       2.69527      .   S
    Zr42   O46       1.19528      .   S
    N4     O46       2.95425      .   S
    Zr47   O48       0.65941  1_655   S
    N5     O48       2.51534  1_545   S
    Zr47   O49       0.65573      .   S
    N10    O49       2.54527      .   S
    Zr47   O50       0.66397  1_655   S
    N6     O50       2.52202      .   S
    Zr47   O51       0.65449      .   S
    N9     O51       2.50448      .   S
    Zr52   O53       0.65578      .   S
    N8     O53       2.54539      .   S
    Zr52   O54       0.66398      .   S
    N11    O54       2.52202  1_545   S
    Zr52   O55       0.65944      .   S
    N7     O55       2.51524      .   S
    Zr52   O56       0.65455      .   S
    N0     O56       2.50429      .   S
    Zr57   O58       0.66003      .   S
    N10    O58       2.48211  1_665   S
    Zr57   O59       0.65599      .   S
    N5     O59       2.56615      .   S
    Zr57   O60       0.63272      .   S
    N1     O60       2.58989  1_556   S
    Zr57   O61       0.66054      .   S
    N6     O61       2.52148      .   S
    Zr62   O63       0.65450      .   S
    N7     O63       2.50428      .   S
    Zr62   O64       0.65944  1_455   S
    N0     O64       2.51543  1_565   S
    Zr62   O65       0.65574      .   S
    N1     O65       2.54541      .   S
    Zr62   O66       0.66399  1_455   S
    N4     O66       2.52158      .   S
    Zr67   O68       0.66009      .   S
    N8     O68       2.48199      .   S
    Zr67   O69       0.65702      .   S
    N3     O69       2.56498      .   S
    Zr67   O70       0.65598      .   S
    N7     O70       2.56622      .   S
    Zr67   O71       0.66056      .   S
    N11    O71       2.52150      .   S
