# CIF file generated by openbabel 2.4.90, see http://openbabel.sf.net
data_I
_chemical_name_common ''
_cell_length_a 9.0155
_cell_length_b 9.0175
_cell_length_c 19.522
_cell_angle_alpha 90.006
_cell_angle_beta 90.004
_cell_angle_gamma 111.285
_space_group_name_H-M_alt 'P 1'
_space_group_name_Hall 'P 1'
loop_
    _symmetry_equiv_pos_as_xyz
    x,y,z
loop_
    _atom_site_label
    _atom_site_type_symbol
    _atom_site_fract_x
    _atom_site_fract_y
    _atom_site_fract_z
    _atom_site_occupancy
    Zr0     Zr   0.01741   0.30562   0.32651   1.000
    Zr1     Zr   0.14192   0.16863   0.08235   1.000
    Zr2     Zr   0.49665   0.20644   0.31759   1.000
    Zr3     Zr   0.48256   0.19457   0.82653   1.000
    Zr4     Zr   0.35799   0.33154   0.58236   1.000
    Zr5     Zr   0.00333   0.29380   0.81759   1.000
    Zr6     Zr   0.98256   0.69456   0.67625   1.000
    Zr7     Zr   0.85804   0.83159   0.92040   1.000
    Zr8     Zr   0.50328   0.79375   0.68518   1.000
    Zr9     Zr   0.51739   0.80562   0.17623   1.000
    Zr10    Zr   0.64198   0.66865   0.42040   1.000
    Zr11    Zr   0.99657   0.70642   0.18516   1.000
    Zr12    Zr   0.07000   0.27021   0.24163   1.000
    Zr13    Zr   0.21620   0.41815   0.23291   1.000
    Zr14    Zr   0.42997   0.22998   0.74165   1.000
    Zr15    Zr   0.28370   0.08211   0.73292   1.000
    Zr16    Zr   0.93000   0.73000   0.76113   1.000
    Zr17    Zr   0.78376   0.58209   0.76984   1.000
    Zr18    Zr   0.57003   0.77021   0.26110   1.000
    Zr19    Zr   0.71627   0.91810   0.26984   1.000
    O20     O    0.54371   0.78792   0.21867   1.000
    O21     O    0.14310   0.34418   0.23727   1.000
    O22     O    0.04370   0.28791   0.28407   1.000
    O23     O    0.64315   0.84416   0.26547   1.000
    O24     O    0.95628   0.71228   0.71869   1.000
    O25     O    0.35683   0.15605   0.73728   1.000
    O26     O    0.45626   0.21228   0.78409   1.000
    O27     O    0.85688   0.65605   0.76548   1.000
    N28     N    0.69444   0.98668   0.81002   1.000
    O29     O    0.53690   0.07720   0.82967   1.000
    O30     O    0.60894   0.84976   0.73380   1.000
    O31     O    0.88036   0.17295   0.79468   1.000
    O32     O    0.76696   0.88708   0.88425   1.000
    N33     N    0.16896   0.12870   0.92028   1.000
    O34     O    0.36769   0.16520   0.87126   1.000
    O35     O    0.00959   0.92218   0.91336   1.000
    O36     O    0.06772   0.25214   0.87091   1.000
    O37     O    0.18481   0.16951   0.02059   1.000
    N38     N    0.70127   0.99285   0.34365   1.000
    O39     O    0.70502   0.97416   0.32520   1.000
    O40     O    0.90226   0.17050   0.34441   1.000
    O41     O    0.54681   0.09196   0.33770   1.000
    O42     O    0.66636   0.81825   0.40484   1.000
    N43     N    0.33101   0.37152   0.42028   1.000
    O44     O    0.13230   0.33504   0.37124   1.000
    O45     O    0.31511   0.33072   0.51799   1.000
    O46     O    0.43223   0.24804   0.37092   1.000
    O47     O    0.49042   0.57802   0.41336   1.000
    N48     N    0.79882   0.50738   0.84365   1.000
    O49     O    0.79506   0.52606   0.82520   1.000
    O50     O    0.95334   0.40842   0.83770   1.000
    O51     O    0.83362   0.68197   0.90484   1.000
    O52     O    0.59785   0.32964   0.84440   1.000
    N53     N    0.30546   0.01353   0.19274   1.000
    O54     O    0.39099   0.15043   0.26897   1.000
    O55     O    0.46296   0.92292   0.17310   1.000
    O56     O    0.23303   0.11316   0.11850   1.000
    O57     O    0.11947   0.82733   0.20808   1.000
    N58     N    0.20117   0.49285   0.15910   1.000
    O59     O    0.20492   0.47417   0.17756   1.000
    O60     O    0.16631   0.31824   0.09792   1.000
    O61     O    0.04669   0.59190   0.16504   1.000
    O62     O    0.40217   0.67052   0.15835   1.000
    N63     N    0.19443   0.48664   0.69275   1.000
    O64     O    0.38039   0.67287   0.70811   1.000
    O65     O    0.26690   0.38701   0.61852   1.000
    O66     O    0.03693   0.57723   0.67310   1.000
    O67     O    0.10893   0.34975   0.76897   1.000
    N68     N    0.66893   0.62866   0.58249   1.000
    O69     O    0.68483   0.66949   0.48478   1.000
    O70     O    0.50956   0.42215   0.58940   1.000
    O71     O    0.86766   0.66516   0.63153   1.000
    O72     O    0.56767   0.75210   0.63186   1.000
    N73     N    0.80549   0.51354   0.31001   1.000
    O74     O    0.73310   0.61319   0.38425   1.000
    O75     O    0.96297   0.42290   0.32965   1.000
    O76     O    0.89100   0.65042   0.23379   1.000
    O77     O    0.61949   0.32735   0.29466   1.000
    N78     N    0.83096   0.87151   0.08247   1.000
    O79     O    0.63224   0.83504   0.13149   1.000
    O80     O    0.93213   0.74802   0.13184   1.000
    O81     O    0.81513   0.83072   0.98477   1.000
    O82     O    0.99038   0.07801   0.08940   1.000
    N83     N    0.29873   0.00735   0.65911   1.000
    O84     O    0.29497   0.02604   0.67756   1.000
    O85     O    0.09775   0.82965   0.65835   1.000
    O86     O    0.45320   0.90830   0.66507   1.000
    O87     O    0.33359   0.18193   0.59792   1.000
loop_
    _geom_bond_atom_site_label_1
    _geom_bond_atom_site_label_2
    _geom_bond_distance
    _geom_bond_site_symmetry_2
    _ccdc_geom_bond_type
    Zr9    O20       0.89196      .   S
    Zr18   O20       0.89196      .   S
    Zr13   O21       0.75323      .   S
    Zr12   O21       0.75323      .   S
    Zr12   O22       0.89196      .   S
    Zr0    O22       0.89196      .   S
    Zr18   O23       0.75322      .   S
    Zr19   O23       0.75322      .   S
    Zr6    O24       0.89196      .   S
    Zr16   O24       0.89196      .   S
    Zr15   O25       0.75323      .   S
    Zr14   O25       0.75323      .   S
    Zr14   O26       0.89197      .   S
    Zr3    O26       0.89197      .   S
    Zr16   O27       0.75325      .   S
    Zr17   O27       0.75325      .   S
    N28    O29       1.91634  1_565   S
    Zr3    O29       1.31923      .   S
    N28    O30       1.90828      .   S
    Zr8    O30       1.30909      .   S
    N28    O31       1.91751  1_565   S
    Zr5    O31       1.31888  1_455   S
    N28    O32       1.93910      .   S
    Zr7    O32       1.31195      .   S
    N33    O34       1.95098      .   S
    Zr3    O34       1.30617      .   S
    N33    O35       1.89949  1_545   S
    Zr7    O35       1.32008  1_655   S
    N33    O36       1.93359      .   S
    Zr5    O36       1.31147      .   S
    N33    O37       1.98799  1_556   S
    Zr1    O37       1.26544      .   S
    N38    O39       0.40426      .   S
    Zr19   O39       1.21277      .   S
    N38    O40       1.93460  1_565   S
    Zr0    O40       1.32896  1_455   S
    N38    O41       1.91174  1_565   S
    Zr2    O41       1.32793      .   S
    N38    O42       1.90927      .   S
    Zr10   O42       1.32113      .   S
    N43    O44       1.95095      .   S
    Zr0    O44       1.30610      .   S
    N43    O45       1.93814      .   S
    Zr4    O45       1.31404      .   S
    N43    O46       1.93349      .   S
    Zr2    O46       1.31156      .   S
    N43    O47       1.89958      .   S
    Zr10   O47       1.32018      .   S
    N48    O49       0.40426      .   S
    Zr17   O49       1.21277      .   S
    N48    O50       1.91131      .   S
    Zr5    O50       1.32797  1_455   S
    N48    O51       1.90921      .   S
    Zr7    O51       1.32108      .   S
    N48    O52       1.93485      .   S
    Zr3    O52       1.32903      .   S
    N53    O54       1.90833      .   S
    Zr2    O54       1.30908      .   S
    N53    O55       1.91654  1_545   S
    Zr9    O55       1.31919      .   S
    N53    O56       1.93902      .   S
    Zr1    O56       1.31198      .   S
    N53    O57       1.91745  1_545   S
    Zr11   O57       1.31882  1_655   S
    N58    O59       0.40425      .   S
    Zr13   O59       1.21276      .   S
    N58    O60       1.90923      .   S
    Zr1    O60       1.32107      .   S
    N58    O61       1.91154      .   S
    Zr11   O61       1.32794  1_655   S
    N58    O62       1.93470      .   S
    Zr9    O62       1.32901      .   S
    N63    O64       1.91742      .   S
    Zr8    O64       1.31887      .   S
    N63    O65       1.93905      .   S
    Zr4    O65       1.31196      .   S
    N63    O66       1.91646      .   S
    Zr6    O66       1.31912  1_655   S
    N63    O67       1.90826      .   S
    Zr5    O67       1.30901      .   S
    N68    O69       1.93818      .   S
    Zr10   O69       1.31403      .   S
    N68    O70       1.89949      .   S
    Zr4    O70       1.32019      .   S
    N68    O71       1.95095      .   S
    Zr6    O71       1.30612      .   S
    N68    O72       1.93357      .   S
    Zr8    O72       1.31156      .   S
    N73    O74       1.93897      .   S
    Zr10   O74       1.31199      .   S
    N73    O75       1.91657      .   S
    Zr0    O75       1.31908  1_455   S
    N73    O76       1.90836      .   S
    Zr11   O76       1.30897      .   S
    N73    O77       1.91738      .   S
    Zr2    O77       1.31882      .   S
    N78    O79       1.95092      .   S
    Zr9    O79       1.30615      .   S
    N78    O80       1.93352      .   S
    Zr11   O80       1.31145      .   S
    N78    O81       1.93784  1_554   S
    Zr7    O81       1.31405      .   S
    N78    O82       1.89960  1_565   S
    Zr1    O82       1.32007  1_455   S
    N83    O84       0.40426      .   S
    Zr15   O84       1.21278      .   S
    N83    O85       1.93469  1_545   S
    Zr6    O85       1.32896  1_655   S
    N83    O86       1.91157  1_545   S
    Zr8    O86       1.32796      .   S
    N83    O87       1.90924      .   S
    Zr4    O87       1.32113      .   S
