# CIF file generated by openbabel 2.4.90, see http://openbabel.sf.net
data_I
_chemical_name_common ''
_cell_length_a 12.318
_cell_length_b 21.045
_cell_length_c 16.643
_cell_angle_alpha 71.59
_cell_angle_beta 83.891
_cell_angle_gamma 90.005
_space_group_name_H-M_alt 'P 1'
_space_group_name_Hall 'P 1'
loop_
    _symmetry_equiv_pos_as_xyz
    x,y,z
loop_
    _atom_site_label
    _atom_site_type_symbol
    _atom_site_fract_x
    _atom_site_fract_y
    _atom_site_fract_z
    _atom_site_occupancy
    Ca0     Ca   0.12496   0.04787   0.30000   1.000
    Ca1     Ca   0.12497   0.54787   0.30000   1.000
    Ca2     Ca   0.62498   0.04787   0.30000   1.000
    Ca3     Ca   0.62498   0.54787   0.30000   1.000
    H4      H    0.14998   0.17129   0.76014   1.000
    H5      H    0.14999   0.67129   0.76014   1.000
    H6      H    0.65000   0.17129   0.76014   1.000
    H7      H    0.65000   0.67129   0.76014   1.000
    H8      H    0.09999   0.05106   0.23990   1.000
    H9      H    0.10000   0.55105   0.23995   1.000
    H10     H    0.60001   0.05106   0.23990   1.000
    H11     H    0.60001   0.55105   0.23995   1.000
    H12     H    0.38387   0.12701   0.78150   1.000
    H13     H    0.38388   0.62701   0.78150   1.000
    H14     H    0.88389   0.12701   0.78154   1.000
    H15     H    0.88389   0.62701   0.78150   1.000
    H16     H    0.46920   0.06544   0.76257   1.000
    H17     H    0.46921   0.56544   0.76257   1.000
    H18     H    0.96922   0.06544   0.76257   1.000
    H19     H    0.96922   0.56544   0.76257   1.000
    H20     H    0.02156   0.09162   0.63349   1.000
    H21     H    0.02156   0.59162   0.63349   1.000
    H22     H    0.52158   0.09162   0.63349   1.000
    H23     H    0.52158   0.59162   0.63349   1.000
    H24     H    0.43027   0.15635   0.59958   1.000
    H25     H    0.43027   0.65635   0.59958   1.000
    H26     H    0.93028   0.15635   0.59958   1.000
    H27     H    0.93029   0.65635   0.59958   1.000
    H28     H    0.22861   0.40831   0.36677   1.000
    H29     H    0.22862   0.90831   0.36677   1.000
    H30     H    0.72863   0.40831   0.36677   1.000
    H31     H    0.72863   0.90831   0.36677   1.000
    H32     H    0.31980   0.45623   0.40060   1.000
    H33     H    0.31980   0.95623   0.40060   1.000
    H34     H    0.81981   0.45623   0.40060   1.000
    H35     H    0.81982   0.95623   0.40060   1.000
    H36     H    0.36615   0.01748   0.21860   1.000
    H37     H    0.36615   0.51748   0.21860   1.000
    H38     H    0.86617   0.01748   0.21860   1.000
    H39     H    0.86617   0.51748   0.21860   1.000
    H40     H    0.28066   0.44647   0.23765   1.000
    H41     H    0.28066   0.94647   0.23765   1.000
    H42     H    0.78068   0.44647   0.23765   1.000
    H43     H    0.78068   0.94647   0.23765   1.000
    H44     H    0.35004   0.32871   0.23985   1.000
    H45     H    0.35005   0.82871   0.23985   1.000
    H46     H    0.85006   0.32871   0.23985   1.000
    H47     H    0.85006   0.82871   0.23985   1.000
    H48     H    0.40003   0.44894   0.76004   1.000
    H49     H    0.40003   0.94894   0.76004   1.000
    H50     H    0.90005   0.44894   0.76004   1.000
    H51     H    0.90005   0.94894   0.76004   1.000
    H52     H    0.11615   0.37298   0.21845   1.000
    H53     H    0.11615   0.87298   0.21845   1.000
    H54     H    0.61617   0.37298   0.21845   1.000
    H55     H    0.61617   0.87298   0.21845   1.000
    H56     H    0.03082   0.43456   0.23742   1.000
    H57     H    0.03083   0.93456   0.23742   1.000
    H58     H    0.53084   0.43456   0.23742   1.000
    H59     H    0.53084   0.93455   0.23742   1.000
    H60     H    0.47846   0.40837   0.36650   1.000
    H61     H    0.47846   0.90837   0.36650   1.000
    H62     H    0.97847   0.40837   0.36650   1.000
    H63     H    0.97847   0.90837   0.36650   1.000
    H64     H    0.06975   0.34365   0.40041   1.000
    H65     H    0.06975   0.84365   0.40041   1.000
    H66     H    0.56977   0.34365   0.40041   1.000
    H67     H    0.56977   0.84365   0.40041   1.000
    H68     H    0.27140   0.09168   0.63322   1.000
    H69     H    0.27141   0.59168   0.63322   1.000
    H70     H    0.77142   0.09168   0.63322   1.000
    H71     H    0.77142   0.59168   0.63322   1.000
    H72     H    0.18022   0.04376   0.59939   1.000
    H73     H    0.18022   0.54376   0.59939   1.000
    H74     H    0.68024   0.04376   0.59939   1.000
    H75     H    0.68024   0.54376   0.59939   1.000
    H76     H    0.13387   0.48252   0.78100   1.000
    H77     H    0.13387   0.98252   0.78139   1.000
    H78     H    0.63389   0.48252   0.78100   1.000
    H79     H    0.63389   0.98252   0.78139   1.000
    C80     C    0.72159   0.92165   0.68272   1.000
    O81     O    0.09653   0.13306   0.86856   1.000
    O82     O    0.09653   0.63306   0.86856   1.000
    O83     O    0.59654   0.13306   0.86856   1.000
    H84     H    0.21936   0.05352   0.76234   1.000
    H85     H    0.21937   0.55352   0.76234   1.000
    H86     H    0.71938   0.05352   0.76234   1.000
    H87     H    0.71938   0.55352   0.76234   1.000
    C88     C    0.01398   0.10095   0.85882   1.000
    C89     C    0.01398   0.60095   0.85882   1.000
    C90     C    0.51399   0.10095   0.85882   1.000
    C91     C    0.51400   0.60095   0.85882   1.000
    C92     C    0.47019   0.11416   0.77418   1.000
    C93     C    0.47020   0.61416   0.77418   1.000
    C94     C    0.97021   0.11416   0.77418   1.000
    C95     C    0.97021   0.61416   0.77418   1.000
    C96     C    0.02819   0.16868   0.69472   1.000
    C97     C    0.02820   0.66868   0.69472   1.000
    C98     C    0.52821   0.16868   0.69472   1.000
    C99     C    0.52821   0.66868   0.69472   1.000
    C100    C    0.01378   0.14612   0.61669   1.000
    C101    C    0.01378   0.64612   0.61669   1.000
    C102    C    0.51379   0.14612   0.61669   1.000
    C103    C    0.51380   0.64612   0.61669   1.000
    C104    C    0.08960   0.17770   0.53564   1.000
    C105    C    0.08961   0.67770   0.53564   1.000
    C106    C    0.58962   0.17770   0.53564   1.000
    C107    C    0.58962   0.67770   0.53564   1.000
    C108    C    0.47153   0.23703   0.68270   1.000
    C109    C    0.47154   0.73703   0.68270   1.000
    C110    C    0.97155   0.23703   0.68274   1.000
    C111    C    0.97155   0.73703   0.68270   1.000
    O112    O    0.40350   0.36693   0.13143   1.000
    O113    O    0.40350   0.86693   0.13143   1.000
    O114    O    0.90351   0.36693   0.13143   1.000
    O115    O    0.90351   0.86693   0.13143   1.000
    O116    O    0.03230   0.44734   0.07710   1.000
    C117    C    0.16045   0.44563   0.46448   1.000
    C118    C    0.16045   0.94563   0.46448   1.000
    C119    C    0.66047   0.44563   0.46448   1.000
    C120    C    0.66047   0.94563   0.46448   1.000
    C121    C    0.23630   0.45448   0.38346   1.000
    C122    C    0.23630   0.95448   0.38346   1.000
    C123    C    0.73632   0.45448   0.38346   1.000
    C124    C    0.73632   0.95448   0.38346   1.000
    C125    C    0.22182   0.01592   0.30538   1.000
    C126    C    0.22182   0.51592   0.30538   1.000
    C127    C    0.72183   0.01592   0.30538   1.000
    C128    C    0.72183   0.51592   0.30538   1.000
    C129    C    0.27980   0.50100   0.22598   1.000
    C130    C    0.27980   0.00000   0.22598   1.000
    C131    C    0.77981   0.50100   0.22598   1.000
    C132    C    0.77982   0.00000   0.22598   1.000
    C133    C    0.23599   0.03004   0.14134   1.000
    C134    C    0.23599   0.53004   0.14134   1.000
    C135    C    0.73600   0.03004   0.14134   1.000
    C136    C    0.73601   0.53004   0.14134   1.000
    C137    C    0.27845   0.07834   0.31728   1.000
    C138    C    0.27846   0.57834   0.31728   1.000
    C139    C    0.77847   0.07834   0.31728   1.000
    C140    C    0.77847   0.57834   0.31728   1.000
    C141    C    0.48605   0.39905   0.14117   1.000
    C142    C    0.48605   0.89905   0.14117   1.000
    C143    C    0.98606   0.39905   0.14117   1.000
    C144    C    0.98606   0.89905   0.14117   1.000
    C145    C    0.02983   0.38584   0.22582   1.000
    C146    C    0.02983   0.88583   0.22582   1.000
    C147    C    0.52984   0.38584   0.22582   1.000
    C148    C    0.52985   0.88583   0.22582   1.000
    C149    C    0.47183   0.33132   0.30528   1.000
    C150    C    0.47183   0.83132   0.30528   1.000
    C151    C    0.97184   0.33132   0.30528   1.000
    C152    C    0.97185   0.83132   0.30528   1.000
    C153    C    0.48624   0.35387   0.38330   1.000
    C154    C    0.48624   0.85387   0.38330   1.000
    C155    C    0.98625   0.35387   0.38330   1.000
    C156    C    0.98626   0.85387   0.38330   1.000
    C157    C    0.41042   0.32230   0.46436   1.000
    C158    C    0.41042   0.82230   0.46436   1.000
    C159    C    0.91043   0.32230   0.46436   1.000
    C160    C    0.91044   0.82230   0.46436   1.000
    C161    C    0.02849   0.26296   0.31725   1.000
    C162    C    0.02849   0.76296   0.31725   1.000
    C163    C    0.52850   0.26296   0.31725   1.000
    C164    C    0.52851   0.76296   0.31725   1.000
    C165    C    0.33957   0.05437   0.53551   1.000
    C166    C    0.33957   0.55437   0.53551   1.000
    C167    C    0.83958   0.05437   0.53551   1.000
    C168    C    0.83959   0.55437   0.53551   1.000
    C169    C    0.26372   0.04552   0.61653   1.000
    C170    C    0.26372   0.54552   0.61653   1.000
    C171    C    0.76373   0.04552   0.61653   1.000
    C172    C    0.76374   0.54552   0.61653   1.000
    C173    C    0.27821   0.48407   0.69462   1.000
    C174    C    0.27821   0.98407   0.69462   1.000
    C175    C    0.77822   0.48407   0.69462   1.000
    C176    C    0.77822   0.98407   0.69462   1.000
    C177    C    0.22022   0.99899   0.77402   1.000
    C178    C    0.22023   0.49899   0.77402   1.000
    C179    C    0.72024   0.99899   0.77402   1.000
    C180    C    0.72024   0.49899   0.77402   1.000
    C181    C    0.26404   0.46996   0.85860   1.000
    C182    C    0.26404   0.96995   0.85860   1.000
    C183    C    0.76405   0.46996   0.85860   1.000
    C184    C    0.76405   0.96995   0.85860   1.000
    C185    C    0.22157   0.42165   0.68272   1.000
    C186    C    0.22157   0.92165   0.68272   1.000
    C187    C    0.72158   0.42165   0.68272   1.000
    O188    O    0.59655   0.63306   0.86856   1.000
    O189    O    0.46773   0.05265   0.92290   1.000
    O190    O    0.46773   0.55265   0.92290   1.000
    O191    O    0.96774   0.05265   0.92290   1.000
    O192    O    0.96774   0.55265   0.92290   1.000
    O193    O    0.10194   0.14458   0.48311   1.000
    O194    O    0.10195   0.64458   0.48311   1.000
    O195    O    0.60196   0.14458   0.48311   1.000
    O196    O    0.60196   0.64458   0.48311   1.000
    O197    O    0.13956   0.23364   0.52091   1.000
    O198    O    0.13956   0.73364   0.52091   1.000
    O199    O    0.63958   0.23364   0.52091   1.000
    O200    O    0.63958   0.73364   0.52091   1.000
    O201    O    0.03253   0.28926   0.66698   1.000
    O202    O    0.03253   0.78926   0.66698   1.000
    O203    O    0.53254   0.28926   0.66698   1.000
    O204    O    0.53254   0.78926   0.66698   1.000
    O205    O    0.36848   0.23436   0.68747   1.000
    O206    O    0.36848   0.73436   0.68747   1.000
    O207    O    0.86849   0.23436   0.68747   1.000
    O208    O    0.86849   0.73436   0.68747   1.000
    O209    O    0.14366   0.17493   0.70002   1.000
    O210    O    0.14367   0.67493   0.70002   1.000
    O211    O    0.64368   0.17493   0.70002   1.000
    O212    O    0.64368   0.67493   0.70002   1.000
    O213    O    0.11064   0.49428   0.47916   1.000
    O214    O    0.11064   0.99428   0.47916   1.000
    O215    O    0.61065   0.49428   0.47916   1.000
    O216    O    0.61065   0.99428   0.47916   1.000
    O217    O    0.14802   0.38629   0.51705   1.000
    O218    O    0.14802   0.88628   0.51705   1.000
    O219    O    0.64803   0.38629   0.51705   1.000
    O220    O    0.64803   0.88628   0.51705   1.000
    O221    O    0.28231   0.01383   0.07724   1.000
    O222    O    0.28232   0.51383   0.07724   1.000
    O223    O    0.78233   0.01383   0.07724   1.000
    O224    O    0.78233   0.51383   0.07724   1.000
    O225    O    0.15326   0.06687   0.13164   1.000
    O226    O    0.15326   0.56687   0.13164   1.000
    O227    O    0.65328   0.06687   0.13164   1.000
    O228    O    0.65328   0.56687   0.13164   1.000
    O229    O    0.21742   0.12269   0.33304   1.000
    O230    O    0.21743   0.62269   0.33304   1.000
    O231    O    0.71744   0.12269   0.33304   1.000
    O232    O    0.71744   0.62269   0.33304   1.000
    O233    O    0.38150   0.07806   0.31259   1.000
    O234    O    0.38150   0.57806   0.31259   1.000
    O235    O    0.88151   0.07806   0.31259   1.000
    O236    O    0.88152   0.57806   0.31259   1.000
    O237    O    0.10633   0.02478   0.30011   1.000
    O238    O    0.10634   0.52478   0.30011   1.000
    O239    O    0.60635   0.02478   0.30011   1.000
    O240    O    0.60635   0.52478   0.30011   1.000
    O241    O    0.03230   0.94734   0.07710   1.000
    O242    O    0.53231   0.44734   0.07710   1.000
    O243    O    0.53231   0.94734   0.07710   1.000
    O244    O    0.39808   0.35541   0.51689   1.000
    O245    O    0.39808   0.85541   0.51689   1.000
    O246    O    0.89810   0.35541   0.51689   1.000
    O247    O    0.89810   0.85541   0.51689   1.000
    O248    O    0.36046   0.26636   0.47909   1.000
    O249    O    0.36046   0.76635   0.47909   1.000
    O250    O    0.86048   0.26636   0.47909   1.000
    O251    O    0.86048   0.76635   0.47909   1.000
    O252    O    0.46749   0.21073   0.33301   1.000
    O253    O    0.46750   0.71073   0.33301   1.000
    O254    O    0.96751   0.21073   0.33301   1.000
    O255    O    0.96751   0.71073   0.33301   1.000
    O256    O    0.13154   0.26564   0.31253   1.000
    O257    O    0.13155   0.76563   0.31253   1.000
    O258    O    0.63156   0.26564   0.31253   1.000
    O259    O    0.63156   0.76563   0.31253   1.000
    O260    O    0.35636   0.32507   0.29997   1.000
    O261    O    0.35636   0.82506   0.29997   1.000
    O262    O    0.85638   0.32507   0.29997   1.000
    O263    O    0.85638   0.82506   0.29997   1.000
    O264    O    0.38939   0.00572   0.52084   1.000
    O265    O    0.38939   0.50572   0.52084   1.000
    O266    O    0.88940   0.00572   0.52084   1.000
    O267    O    0.88941   0.50572   0.52084   1.000
    O268    O    0.35201   0.11371   0.48295   1.000
    O269    O    0.35201   0.61371   0.48295   1.000
    O270    O    0.85202   0.11371   0.48295   1.000
    O271    O    0.85202   0.61371   0.48295   1.000
    O272    O    0.21771   0.48616   0.92276   1.000
    O273    O    0.21771   0.98616   0.92276   1.000
    O274    O    0.71772   0.48616   0.92276   1.000
    O275    O    0.71773   0.98616   0.92276   1.000
    O276    O    0.34676   0.43312   0.86835   1.000
    O277    O    0.34677   0.93312   0.86835   1.000
    O278    O    0.84678   0.43312   0.86835   1.000
    O279    O    0.84678   0.93312   0.86835   1.000
    O280    O    0.28260   0.37731   0.66696   1.000
    O281    O    0.28260   0.87731   0.66696   1.000
    O282    O    0.78261   0.37731   0.66696   1.000
    O283    O    0.78262   0.87731   0.66696   1.000
    O284    O    0.11852   0.42194   0.68740   1.000
    O285    O    0.11853   0.92194   0.68740   1.000
    O286    O    0.61854   0.42194   0.68740   1.000
    O287    O    0.61854   0.92194   0.68740   1.000
    O288    O    0.39369   0.47522   0.69989   1.000
    O289    O    0.39369   0.97522   0.69989   1.000
    O290    O    0.89370   0.47522   0.69989   1.000
    O291    O    0.89371   0.97522   0.69989   1.000
loop_
    _geom_bond_atom_site_label_1
    _geom_bond_atom_site_label_2
    _geom_bond_distance
    _geom_bond_site_symmetry_2
    _ccdc_geom_bond_type
    O116   C143      1.29636  1_455   S
    O241   C144      1.29636  1_455   S
    O242   C141      1.29648      .   S
    O243   C142      1.29648      .   S
    O224   C136      1.29629      .   S
    O223   C135      1.29629      .   S
    O222   C134      1.29629      .   S
    O221   C133      1.29629      .   S
    O112   C141      1.27327      .   S
    O113   C142      1.27328      .   S
    O114   C143      1.27327      .   S
    O115   C144      1.27327      .   S
    O228   C136      1.27334      .   S
    O225   C133      1.27334      .   S
    O226   C134      1.27334      .   S
    O227   C135      1.27334      .   S
    C144   C146      1.50569  1_655   S
    C143   C145      1.50569  1_655   S
    C142   C148      1.50584      .   S
    C141   C147      1.50584      .   S
    C136   C131      1.50569      .   S
    C135   C132      1.50820      .   S
    C134   C129      1.50569      .   S
    C133   C130      1.50820      .   S
    H55    C148      1.10094      .   S
    H54    C147      1.10094      .   S
    H53    C146      1.10094      .   S
    H52    C145      1.10094      .   S
    H36    C130      1.10692      .   S
    H37    C129      1.10090      .   S
    H38    C132      1.10692      .   S
    H39    C131      1.10090      .   S
    C148   H59       1.10191      .   S
    C148   C150      1.55444      .   S
    C147   H58       1.10192      .   S
    C147   C149      1.55444      .   S
    C146   H57       1.10194      .   S
    C146   C152      1.55431  1_455   S
    C145   H56       1.10191      .   S
    C145   C151      1.55431  1_455   S
    C129   H40       1.10206      .   S
    C129   C126      1.55441      .   S
    C132   H43       1.08128  1_545   S
    C132   C127      1.56449      .   S
    C130   H41       1.08128  1_545   S
    C130   C125      1.56449      .   S
    C131   H42       1.10206      .   S
    C131   C128      1.55441      .   S
    H47    O263      0.99056      .   S
    H46    O262      0.99056      .   S
    H45    O261      0.99056      .   S
    H44    O260      0.99056      .   S
    H8     O237      0.99133      .   S
    H10    O239      0.99133      .   S
    H9     O238      0.99063      .   S
    H11    O240      0.99063      .   S
    O263   C152      1.44298      .   S
    O262   C151      1.44298      .   S
    O261   C150      1.44298      .   S
    O260   C149      1.44298      .   S
    O240   Ca3       0.53679      .   S
    O238   Ca1       0.53679      .   S
    O239   Ca2       0.53681      .   S
    O237   Ca0       0.53681      .   S
    C149   C163      1.56369      .   S
    C149   C153      1.54311      .   S
    C150   C164      1.56369      .   S
    C150   C154      1.54311      .   S
    C151   C161      1.56353  1_655   S
    C151   C155      1.54311      .   S
    C152   C162      1.56353  1_655   S
    C152   C156      1.54311      .   S
    C125   C137      1.56370      .   S
    C125   C122      1.54298  1_545   S
    C126   C138      1.56370      .   S
    C126   C121      1.54294      .   S
    C127   C139      1.56370      .   S
    C127   C124      1.54298  1_545   S
    C128   C140      1.56370      .   S
    C128   C123      1.54294      .   S
    O256   C161      1.26366      .   S
    O257   C162      1.26366      .   S
    O258   C163      1.26366      .   S
    O259   C164      1.26366      .   S
    O236   C140      1.26353      .   S
    O235   C139      1.26353      .   S
    O234   C138      1.26353      .   S
    O233   C137      1.26353      .   S
    C161   O254      1.27169  1_455   S
    C164   O253      1.27188      .   S
    C163   O252      1.27189      .   S
    C162   O255      1.27168  1_455   S
    C140   O232      1.27187      .   S
    C139   O231      1.27187      .   S
    C138   O230      1.27187      .   S
    C137   O229      1.27187      .   S
    H60    C153      1.09820      .   S
    H61    C154      1.09820      .   S
    H62    C155      1.09820      .   S
    H63    C156      1.09820      .   S
    H30    C123      1.09816      .   S
    H28    C121      1.09816      .   S
    H29    C122      1.09818      .   S
    H31    C124      1.09818      .   S
    C156   H65       1.09949  1_655   S
    C156   C160      1.51635      .   S
    C155   H64       1.09949  1_655   S
    C155   C159      1.51635      .   S
    C154   H67       1.09983      .   S
    C154   C158      1.51635      .   S
    C153   H66       1.09983      .   S
    C153   C157      1.51635      .   S
    C121   H32       1.09988      .   S
    C121   C117      1.51626      .   S
    C124   H35       1.09988      .   S
    C124   C120      1.51626      .   S
    C123   H34       1.09988      .   S
    C123   C119      1.51626      .   S
    C122   H33       1.09988      .   S
    C122   C118      1.51626      .   S
    C159   O250      1.26899      .   S
    C159   O246      1.27657      .   S
    C158   O249      1.26899      .   S
    C158   O245      1.27657      .   S
    C157   O248      1.26899      .   S
    C157   O244      1.27657      .   S
    C160   O251      1.26899      .   S
    C160   O247      1.27657      .   S
    C117   O213      1.26910      .   S
    C117   O217      1.27667      .   S
    C119   O215      1.26910      .   S
    C119   O219      1.27667      .   S
    C118   O214      1.26910      .   S
    C118   O218      1.27667      .   S
    C120   O216      1.26909      .   S
    C120   O220      1.27667      .   S
    O269   C166      1.27661      .   S
    O270   C167      1.27661      .   S
    O268   C165      1.27661      .   S
    O271   C168      1.27661      .   S
    O193   C104      1.27657      .   S
    O194   C105      1.27657      .   S
    O195   C106      1.27657      .   S
    O196   C107      1.27657      .   S
    O266   C167      1.26903      .   S
    O265   C166      1.26903      .   S
    O267   C168      1.26904      .   S
    O264   C165      1.26903      .   S
    O197   C104      1.26899      .   S
    O198   C105      1.26899      .   S
    O199   C106      1.26899      .   S
    O200   C107      1.26899      .   S
    C165   C169      1.51627      .   S
    C168   C172      1.51627      .   S
    C167   C171      1.51627      .   S
    C166   C170      1.51627      .   S
    C106   C102      1.51625      .   S
    C104   C100      1.51625      .   S
    C107   C103      1.51625      .   S
    C105   C101      1.51625      .   S
    H74    C171      1.09988      .   S
    H75    C172      1.09988      .   S
    H73    C170      1.09988      .   S
    H72    C169      1.09988      .   S
    H24    C102      1.09982      .   S
    H25    C103      1.09982      .   S
    H26    C100      1.09949  1_655   S
    H27    C101      1.09949  1_655   S
    C172   H71       1.09816      .   S
    C172   C175      1.54304      .   S
    C171   H70       1.09816      .   S
    C171   C176      1.54308  1_545   S
    C170   H69       1.09816      .   S
    C170   C173      1.54304      .   S
    C169   H68       1.09816      .   S
    C169   C174      1.54308  1_545   S
    C101   H21       1.09817      .   S
    C101   C97       1.54327      .   S
    C100   H20       1.09817      .   S
    C100   C96       1.54327      .   S
    C102   H22       1.09817      .   S
    C102   C98       1.54327      .   S
    C103   H23       1.09817      .   S
    C103   C99       1.54327      .   S
    O283   C80       1.27187      .   S
    O282   C187      1.27187      .   S
    O281   C186      1.27187      .   S
    O280   C185      1.27187      .   S
    O202   C111      1.27179  1_455   S
    O203   C108      1.27199      .   S
    O204   C109      1.27199      .   S
    O201   C110      1.27170  1_455   S
    C111   O208      1.26361      .   S
    C111   C97       1.56342  1_655   S
    C108   O205      1.26361      .   S
    C108   C98       1.56357      .   S
    C109   O206      1.26361      .   S
    C109   C99       1.56357      .   S
    C80    O287      1.26353      .   S
    C80    C176      1.56370      .   S
    C187   O286      1.26354      .   S
    C187   C175      1.56370      .   S
    C186   O285      1.26354      .   S
    C186   C174      1.56370      .   S
    C185   O284      1.26354      .   S
    C185   C173      1.56370      .   S
    C110   O207      1.26365      .   S
    C110   C96       1.56349  1_655   S
    C176   O291      1.44299      .   S
    C176   C179      1.55446      .   S
    C175   O290      1.44299      .   S
    C175   C180      1.55440      .   S
    C174   O289      1.44300      .   S
    C174   C177      1.55446      .   S
    C173   O288      1.44299      .   S
    C173   C178      1.55440      .   S
    C97    O210      1.44296      .   S
    C97    C95       1.55431  1_455   S
    C98    O211      1.44296      .   S
    C98    C92       1.55444      .   S
    C99    O212      1.44296      .   S
    C99    C93       1.55444      .   S
    C96    O209      1.44296      .   S
    C96    C94       1.55431  1_455   S
    O291   H51       0.99048      .   S
    O288   H48       0.99049      .   S
    O289   H49       0.99048      .   S
    O290   H50       0.99049      .   S
    O211   H6        0.99056      .   S
    O210   H5        0.99056      .   S
    O209   H4        0.99056      .   S
    O212   H7        0.99056      .   S
    H84    C177      1.10201  1_545   S
    H85    C178      1.10203      .   S
    H86    C179      1.10201  1_545   S
    H87    C180      1.10203      .   S
    H19    C95       1.10199      .   S
    H18    C94       1.10199      .   S
    H17    C93       1.10199      .   S
    H16    C92       1.10199      .   S
    C180   H78       1.10153      .   S
    C180   C183      1.50484      .   S
    C179   H79       1.10087      .   S
    C179   C184      1.50489      .   S
    C178   H76       1.10153      .   S
    C178   C181      1.50484      .   S
    C177   H77       1.10087      .   S
    C177   C182      1.50489      .   S
    C95    H15       1.10087      .   S
    C95    C89       1.50554  1_655   S
    C94    H14       1.10093      .   S
    C94    C88       1.50554  1_655   S
    C93    H13       1.10087      .   S
    C93    C91       1.50569      .   S
    C92    H12       1.10087      .   S
    C92    C90       1.50569      .   S
    C181   O276      1.27337      .   S
    C181   O272      1.29713      .   S
    C182   O277      1.27336      .   S
    C182   O273      1.29714      .   S
    C183   O278      1.27337      .   S
    C183   O274      1.29713      .   S
    C184   O279      1.27336      .   S
    C184   O275      1.29713      .   S
    C89    O82       1.27328      .   S
    C89    O192      1.29644  1_455   S
    C90    O83       1.27328      .   S
    C90    O189      1.29655      .   S
    C91    O188      1.27328      .   S
    C91    O190      1.29657      .   S
    C88    O81       1.27327      .   S
    C88    O191      1.29643  1_455   S
    O213   Ca1       2.82097      .   S
    O214   Ca0       2.82098  1_565   S
    O215   Ca3       2.82097      .   S
    O216   Ca2       2.82098  1_565   S
    O225   Ca0       2.68645      .   S
    O226   Ca1       2.68645      .   S
    O227   Ca2       2.68645      .   S
    O228   Ca3       2.68645      .   S
    O229   Ca0       2.18144      .   S
    O230   Ca1       2.18146      .   S
    O231   Ca2       2.18144      .   S
    O232   Ca3       2.18146      .   S
    O237   C125      1.44299      .   S
    O238   C126      1.44299      .   S
    O239   C127      1.44299      .   S
    O240   C128      1.44299      .   S
