# CIF file generated by openbabel 2.4.90, see http://openbabel.sf.net
data_I
_chemical_name_common ''
_cell_length_a 12.318
_cell_length_b 21.045
_cell_length_c 16.643
_cell_angle_alpha 71.59
_cell_angle_beta 83.891
_cell_angle_gamma 90.005
_space_group_name_H-M_alt 'P 1'
_space_group_name_Hall 'P 1'
loop_
    _symmetry_equiv_pos_as_xyz
    x,y,z
loop_
    _atom_site_label
    _atom_site_type_symbol
    _atom_site_fract_x
    _atom_site_fract_y
    _atom_site_fract_z
    _atom_site_occupancy
    Ca0     Ca   0.37506   0.95213   0.99997   1.000
    Ca1     Ca   0.87507   0.45213   0.99997   1.000
    Ca2     Ca   0.87508   0.95213   0.99997   1.000
    Ca3     Ca   0.02084   0.09187   0.39623   1.000
    Ca4     Ca   0.02084   0.59187   0.39623   1.000
    Ca5     Ca   0.52085   0.09187   0.39623   1.000
    Ca6     Ca   0.52085   0.59187   0.39623   1.000
    Ca7     Ca   0.22919   0.29006   0.60372   1.000
    Ca8     Ca   0.22919   0.79006   0.60372   1.000
    Ca9     Ca   0.72920   0.29006   0.60372   1.000
    Ca10    Ca   0.72921   0.79006   0.60372   1.000
    Ca11    Ca   0.47919   0.40812   0.60376   1.000
    Ca12    Ca   0.47919   0.90812   0.60376   1.000
    Ca13    Ca   0.97920   0.40812   0.60376   1.000
    Ca14    Ca   0.97920   0.90812   0.60376   1.000
    Ca15    Ca   0.27083   0.20993   0.39627   1.000
    Ca16    Ca   0.27084   0.70993   0.39627   1.000
    Ca17    Ca   0.77085   0.20993   0.39627   1.000
    Ca18    Ca   0.77085   0.70993   0.39627   1.000
    Ca19    Ca   0.37506   0.45213   0.99997   1.000
