# CIF file generated by openbabel 2.4.90, see http://openbabel.sf.net
data_I
_chemical_name_common ''
_cell_length_a 12.318
_cell_length_b 21.045
_cell_length_c 16.643
_cell_angle_alpha 71.59
_cell_angle_beta 83.891
_cell_angle_gamma 90.005
_space_group_name_H-M_alt 'P 1'
_space_group_name_Hall 'P 1'
loop_
    _symmetry_equiv_pos_as_xyz
    x,y,z
loop_
    _atom_site_label
    _atom_site_type_symbol
    _atom_site_fract_x
    _atom_site_fract_y
    _atom_site_fract_z
    _atom_site_occupancy
    N0      N    0.22820   0.50510   0.30291   1.000
    N1      N    0.22820   0.00504   0.30290   1.000
    N2      N    0.47822   0.34339   0.30277   1.000
    N3      N    0.52182   0.15660   0.69722   1.000
    N4      N    0.02182   0.15660   0.69723   1.000
    N5      N    0.02182   0.65660   0.69722   1.000
    N6      N    0.72821   0.00504   0.30290   1.000
    N7      N    0.72821   0.50510   0.30291   1.000
    N8      N    0.47822   0.84339   0.30277   1.000
    N9      N    0.97822   0.84339   0.30277   1.000
    N10     N    0.52182   0.65660   0.69722   1.000
    N11     N    0.27183   0.99490   0.69709   1.000
    N12     N    0.77184   0.49490   0.69706   1.000
    N13     N    0.77184   0.99490   0.69709   1.000
    N14     N    0.27183   0.49490   0.69706   1.000
    N15     N    0.97822   0.34339   0.30277   1.000
    Zr16    Zr   0.72920   0.29006   0.60372   1.000
    O17     O    0.81977   0.24973   0.63757   1.000
    O18     O    0.74654   0.35218   0.63496   1.000
    O19     O    0.71881   0.35585   0.51768   1.000
    Zr20    Zr   0.87508   0.95213   0.99997   1.000
    O21     O    0.92335   0.01581   0.91465   1.000
    O22     O    0.82677   0.97307   0.08536   1.000
    Zr23    Zr   0.37506   0.95213   0.99997   1.000
    O24     O    0.42334   0.01581   0.91465   1.000
    O25     O    0.32675   0.97307   0.08536   1.000
    Zr26    Zr   0.52085   0.59187   0.39623   1.000
    O27     O    0.53123   0.61464   0.48234   1.000
    O28     O    0.50353   0.66961   0.36496   1.000
    O29     O    0.43027   0.56845   0.36244   1.000
    Zr30    Zr   0.37506   0.45213   0.99997   1.000
    O31     O    0.42333   0.51581   0.91465   1.000
    O32     O    0.32675   0.47308   0.08536   1.000
    Zr33    Zr   0.22919   0.79006   0.60372   1.000
    O34     O    0.31976   0.74973   0.63756   1.000
    O35     O    0.24653   0.85218   0.63497   1.000
    O36     O    0.21880   0.85583   0.51768   1.000
    Zr37    Zr   0.97920   0.90812   0.60376   1.000
    O38     O    0.96882   0.88535   0.51765   1.000
    O39     O    0.99652   0.83039   0.63503   1.000
    O40     O    0.06978   0.93154   0.63755   1.000
    Zr41    Zr   0.47919   0.90812   0.60376   1.000
    O42     O    0.56977   0.93154   0.63755   1.000
    O43     O    0.49652   0.83039   0.63503   1.000
    O44     O    0.46881   0.88535   0.51765   1.000
    Zr45    Zr   0.47919   0.40812   0.60376   1.000
    O46     O    0.56977   0.43154   0.63754   1.000
    O47     O    0.49651   0.33039   0.63503   1.000
    O48     O    0.46881   0.38535   0.51765   1.000
    Zr49    Zr   0.77085   0.70993   0.39627   1.000
    O50     O    0.68028   0.75026   0.36243   1.000
    O51     O    0.78124   0.64415   0.48230   1.000
    O52     O    0.75351   0.64782   0.36503   1.000
    Zr53    Zr   0.72921   0.79006   0.60372   1.000
    O54     O    0.81977   0.74973   0.63756   1.000
    O55     O    0.71881   0.85583   0.51768   1.000
    O56     O    0.74654   0.85218   0.63497   1.000
    Zr57    Zr   0.77085   0.20993   0.39627   1.000
    O58     O    0.75351   0.14780   0.36502   1.000
    O59     O    0.68028   0.25026   0.36243   1.000
    O60     O    0.78124   0.14415   0.48231   1.000
    Zr61    Zr   0.22919   0.29006   0.60372   1.000
    O62     O    0.31976   0.24973   0.63756   1.000
    O63     O    0.21879   0.35585   0.51768   1.000
    O64     O    0.24653   0.35218   0.63496   1.000
    Zr65    Zr   0.27083   0.20993   0.39627   1.000
    O66     O    0.18027   0.25026   0.36243   1.000
    O67     O    0.28123   0.14415   0.48231   1.000
    O68     O    0.25350   0.14780   0.36502   1.000
    Zr69    Zr   0.97920   0.40812   0.60376   1.000
    O70     O    0.06977   0.43154   0.63754   1.000
    O71     O    0.96882   0.38535   0.51765   1.000
    O72     O    0.99652   0.33039   0.63503   1.000
    Zr73    Zr   0.02084   0.59187   0.39623   1.000
    O74     O    0.93027   0.56845   0.36244   1.000
    O75     O    0.00352   0.66961   0.36496   1.000
    O76     O    0.03122   0.61464   0.48234   1.000
    Zr77    Zr   0.52085   0.09187   0.39623   1.000
    O78     O    0.50352   0.16961   0.36496   1.000
    O79     O    0.53123   0.11464   0.48234   1.000
    O80     O    0.43027   0.06844   0.36244   1.000
    Zr81    Zr   0.27084   0.70993   0.39627   1.000
    O82     O    0.28123   0.64415   0.48230   1.000
    O83     O    0.25350   0.64782   0.36503   1.000
    O84     O    0.18027   0.75026   0.36243   1.000
    Zr85    Zr   0.87507   0.45213   0.99997   1.000
    O86     O    0.82677   0.47308   0.08536   1.000
    O87     O    0.92334   0.51581   0.91465   1.000
    Zr88    Zr   0.02084   0.09187   0.39623   1.000
    O89     O    0.93026   0.06844   0.36244   1.000
    O90     O    0.00352   0.16961   0.36496   1.000
    O91     O    0.03122   0.11464   0.48234   1.000
    O92     O    0.33765   0.96376   0.91120   1.000
    O93     O    0.43983   0.06361   0.48465   1.000
    O94     O    0.56021   0.93637   0.51534   1.000
    O95     O    0.31021   0.80600   0.51527   1.000
    O96     O    0.33765   0.46376   0.91119   1.000
    O97     O    0.41246   0.41932   0.08871   1.000
    O98     O    0.83767   0.96376   0.91120   1.000
    O99     O    0.91247   0.91932   0.08871   1.000
    O100    O    0.43983   0.56361   0.48465   1.000
    O101    O    0.68983   0.19400   0.48473   1.000
    O102    O    0.81022   0.30600   0.51527   1.000
    O103    O    0.91246   0.41932   0.08871   1.000
    O104    O    0.06022   0.93637   0.51534   1.000
    O105    O    0.68983   0.69400   0.48473   1.000
    O106    O    0.41246   0.91932   0.08871   1.000
    O107    O    0.18982   0.19400   0.48473   1.000
    O108    O    0.66294   0.24955   0.62691   1.000
    O109    O    0.15958   0.75129   0.63147   1.000
    O110    O    0.18982   0.69400   0.48473   1.000
    O111    O    0.16293   0.24955   0.62691   1.000
    O112    O    0.31021   0.30600   0.51527   1.000
    O113    O    0.83766   0.46376   0.91119   1.000
    O114    O    0.33697   0.25228   0.36749   1.000
    O115    O    0.93982   0.56361   0.48465   1.000
    O116    O    0.90960   0.93304   0.63145   1.000
    O117    O    0.93982   0.06361   0.48465   1.000
    O118    O    0.41305   0.43610   0.63248   1.000
    O119    O    0.56021   0.43639   0.51534   1.000
    O120    O    0.83711   0.25045   0.37308   1.000
    O121    O    0.65960   0.75129   0.63147   1.000
    O122    O    0.81022   0.80600   0.51527   1.000
    O123    O    0.09044   0.56696   0.36854   1.000
    O124    O    0.06021   0.43639   0.51534   1.000
    O125    O    0.90960   0.43304   0.63145   1.000
    O126    O    0.41292   0.93705   0.62689   1.000
    O127    O    0.09044   0.06694   0.36854   1.000
    O128    O    0.33697   0.75228   0.36749   1.000
    O129    O    0.58699   0.56390   0.36751   1.000
    O130    O    0.83711   0.75045   0.37308   1.000
    O131    O    0.58698   0.06388   0.36751   1.000
loop_
    _geom_bond_atom_site_label_1
    _geom_bond_atom_site_label_2
    _geom_bond_distance
    _geom_bond_site_symmetry_2
    _ccdc_geom_bond_type
    Zr16   O17       1.45397      .   S
    N4     O17       3.21236  1_455   S
    Zr16   O18       1.57403      .   S
    N12    O18       3.49514      .   S
    Zr16   O19       1.66447      .   S
    N7     O19       3.93400      .   S
    Zr20   O21       1.66859  1_565   S
    N4     O21       3.95444  1_455   S
    Zr20   O22       1.66847  1_556   S
    N6     O22       3.95454  1_545   S
    Zr23   O24       1.66862  1_565   S
    N3     O24       3.95451      .   S
    Zr23   O25       1.66847  1_556   S
    N1     O25       3.95454  1_545   S
    Zr26   O27       1.66510      .   S
    N10    O27       3.93569      .   S
    Zr26   O28       1.57443      .   S
    N8     O28       3.49602      .   S
    Zr26   O29       1.45348      .   S
    N0     O29       3.21155      .   S
    Zr30   O31       1.66861      .   S
    N10    O31       3.95451      .   S
    Zr30   O32       1.66863  1_556   S
    N0     O32       3.95496      .   S
    Zr33   O34       1.45401      .   S
    N10    O34       3.21248      .   S
    Zr33   O35       1.57409      .   S
    N11    O35       3.49531      .   S
    Zr33   O36       1.66431      .   S
    N1     O36       3.93359  1_545   S
    Zr37   O38       1.66509      .   S
    N9     O38       3.93572      .   S
    Zr37   O39       1.57441      .   S
    N5     O39       3.49601  1_455   S
    Zr37   O40       1.45337  1_655   S
    N11    O40       3.21138      .   S
    Zr41   O42       1.45348      .   S
    N13    O42       3.21155      .   S
    Zr41   O43       1.57443      .   S
    N10    O43       3.49603      .   S
    Zr41   O44       1.66508      .   S
    N8     O44       3.93571      .   S
    Zr45   O46       1.45343      .   S
    N12    O46       3.21142      .   S
    Zr45   O47       1.57443      .   S
    N3     O47       3.49603      .   S
    Zr45   O48       1.66508      .   S
    N2     O48       3.93571      .   S
    Zr49   O50       1.45400      .   S
    N8     O50       3.21248      .   S
    Zr49   O51       1.66443      .   S
    N12    O51       3.93383      .   S
    Zr49   O52       1.57407      .   S
    N7     O52       3.49529      .   S
    Zr53   O54       1.45396      .   S
    N5     O54       3.21235  1_455   S
    Zr53   O55       1.66431      .   S
    N6     O55       3.93359  1_545   S
    Zr53   O56       1.57409      .   S
    N13    O56       3.49531      .   S
    Zr57   O58       1.57435      .   S
    N6     O58       3.49616      .   S
    Zr57   O59       1.45400      .   S
    N2     O59       3.21248      .   S
    Zr57   O60       1.66449      .   S
    N13    O60       3.93401  1_565   S
    Zr61   O62       1.45401      .   S
    N3     O62       3.21248      .   S
    Zr61   O63       1.66447      .   S
    N0     O63       3.93400      .   S
    Zr61   O64       1.57403      .   S
    N14    O64       3.49514      .   S
    Zr65   O66       1.45396      .   S
    N15    O66       3.21235  1_655   S
    Zr65   O67       1.66449      .   S
    N11    O67       3.93401  1_565   S
    Zr65   O68       1.57435      .   S
    N1     O68       3.49616      .   S
    Zr69   O70       1.45333  1_655   S
    N14    O70       3.21125      .   S
    Zr69   O71       1.66509      .   S
    N15    O71       3.93572      .   S
    Zr69   O72       1.57441      .   S
    N4     O72       3.49601  1_455   S
    Zr73   O74       1.45338  1_455   S
    N7     O74       3.21138      .   S
    Zr73   O75       1.57441      .   S
    N9     O75       3.49601  1_655   S
    Zr73   O76       1.66511      .   S
    N5     O76       3.93569      .   S
    Zr77   O78       1.57443      .   S
    N2     O78       3.49602      .   S
    Zr77   O79       1.66510      .   S
    N3     O79       3.93569      .   S
    Zr77   O80       1.45362      .   S
    N1     O80       3.21201      .   S
    Zr81   O82       1.66443      .   S
    N14    O82       3.93383      .   S
    Zr81   O83       1.57407      .   S
    N0     O83       3.49529      .   S
    Zr81   O84       1.45396      .   S
    N9     O84       3.21235  1_655   S
    Zr85   O86       1.66863  1_556   S
    N7     O86       3.95496      .   S
    Zr85   O87       1.66860      .   S
    N5     O87       3.95448  1_455   S
    Zr88   O89       1.45351  1_455   S
    N6     O89       3.21183      .   S
    Zr88   O90       1.57441      .   S
    N15    O90       3.49601  1_655   S
    Zr88   O91       1.66512      .   S
    N4     O91       3.93575      .   S
    N11    O92       3.59516      .   S
    Zr23   O92       1.54002      .   S
    N11    O93       3.75318  1_565   S
    Zr77   O93       1.62787      .   S
    N6     O94       3.75313  1_545   S
    Zr41   O94       1.62783      .   S
    Zr33   O95       1.62820      .   S
    N8     O95       3.75417      .   S
    Zr30   O96       1.54010      .   S
    N14    O96       3.59542      .   S
    Zr30   O97       1.53972  1_556   S
    N2     O97       3.59452      .   S
    Zr20   O98       1.54002      .   S
    N13    O98       3.59516      .   S
    Zr20   O99       1.53969  1_556   S
    N9     O99       3.59449      .   S
    Zr26   O100      1.62781      .   S
    N14    O100      3.75299      .   S
    N3     O101      3.75415      .   S
    Zr57   O101      1.62821      .   S
    N15    O102      3.75413      .   S
    Zr16   O102      1.62818      .   S
    N15    O103      3.59449      .   S
    Zr85   O103      1.53969  1_556   S
    Zr37   O104      1.62776  1_655   S
    N1     O104      3.75303  1_545   S
    N10    O105      3.75415      .   S
    Zr49   O105      1.62821      .   S
    Zr23   O106      1.53972  1_556   S
    N8     O106      3.59452      .   S
    N4     O107      3.75415      .   S
    Zr65   O107      1.62821      .   S
    Zr16   O108      1.12569      .   S
    N3     O108      2.51751      .   S
    N5     O109      2.50494      .   S
    Zr33   O109      1.13665      .   S
    N5     O110      3.75410      .   S
    Zr81   O110      1.62819      .   S
    Zr61   O111      1.12567      .   S
    N4     O111      2.51746      .   S
    Zr61   O112      1.62820      .   S
    N2     O112      3.75417      .   S
    Zr85   O113      1.54010      .   S
    N12    O113      3.59542      .   S
    Zr65   O114      1.15527      .   S
    N2     O114      2.48192      .   S
    Zr73   O115      1.62774  1_455   S
    N12    O115      3.75289      .   S
    N13    O116      2.50425      .   S
    Zr37   O116      1.13625      .   S
    N13    O117      3.75308  1_565   S
    Zr88   O117      1.62780  1_455   S
    Zr45   O118      1.15478      .   S
    N14    O118      2.48100      .   S
    Zr45   O119      1.62785      .   S
    N7     O119      3.75319      .   S
    Zr57   O120      1.12567      .   S
    N15    O120      2.51745      .   S
    Zr53   O121      1.13667      .   S
    N10    O121      2.50500      .   S
    Zr53   O122      1.62818      .   S
    N9     O122      3.75413      .   S
    N0     O123      2.50423      .   S
    Zr73   O123      1.13622      .   S
    N0     O124      3.75309      .   S
    Zr69   O124      1.62778  1_655   S
    Zr69   O125      1.13619      .   S
    N12    O125      2.50409      .   S
    Zr41   O126      1.12529      .   S
    N11    O126      2.51674      .   S
    N1     O127      2.50485      .   S
    Zr88   O127      1.13641      .   S
    Zr81   O128      1.15527      .   S
    N8     O128      2.48192      .   S
    N7     O129      2.48114      .   S
    Zr26   O129      1.15481      .   S
    N9     O130      2.51745      .   S
    Zr49   O130      1.12567      .   S
    Zr77   O131      1.15502      .   S
    N6     O131      2.48174      .   S
