# CIF file generated by openbabel 2.4.90, see http://openbabel.sf.net
data_I
_chemical_name_common ''
_cell_length_a 12.318
_cell_length_b 21.045
_cell_length_c 16.643
_cell_angle_alpha 71.59
_cell_angle_beta 83.891
_cell_angle_gamma 90.005
_space_group_name_H-M_alt 'P 1'
_space_group_name_Hall 'P 1'
loop_
    _symmetry_equiv_pos_as_xyz
    x,y,z
loop_
    _atom_site_label
    _atom_site_type_symbol
    _atom_site_fract_x
    _atom_site_fract_y
    _atom_site_fract_z
    _atom_site_occupancy
    N0      N    0.22820   0.50510   0.30291   1.000
    N1      N    0.22820   0.00504   0.30290   1.000
    N2      N    0.47822   0.34339   0.30277   1.000
    N3      N    0.52182   0.15660   0.69722   1.000
    N4      N    0.02182   0.15660   0.69723   1.000
    N5      N    0.02182   0.65660   0.69722   1.000
    N6      N    0.72821   0.00504   0.30290   1.000
    N7      N    0.72821   0.50510   0.30291   1.000
    N8      N    0.47822   0.84339   0.30277   1.000
    N9      N    0.97822   0.84339   0.30277   1.000
    N10     N    0.52182   0.65660   0.69722   1.000
    N11     N    0.27183   0.99490   0.69709   1.000
    N12     N    0.77184   0.49490   0.69706   1.000
    N13     N    0.77184   0.99490   0.69709   1.000
    N14     N    0.27183   0.49490   0.69706   1.000
    N15     N    0.97822   0.34339   0.30277   1.000
    Zr16    Zr   0.72920   0.29006   0.60372   1.000
    O17     O    0.80787   0.30043   0.51290   1.000
    O18     O    0.81257   0.31156   0.51763   1.000
    O19     O    0.66615   0.24964   0.61674   1.000
    O20     O    0.65277   0.25660   0.63500   1.000
    O21     O    0.66667   0.24231   0.63913   1.000
    O22     O    0.81977   0.24973   0.63757   1.000
    O23     O    0.74654   0.35218   0.63496   1.000
    O24     O    0.71881   0.35585   0.51768   1.000
    Zr25    Zr   0.12497   0.54787   0.30000   1.000
    O26     O    0.14844   0.53429   0.30074   1.000
    O27     O    0.15431   0.53955   0.27968   1.000
    O28     O    0.16233   0.54653   0.30486   1.000
    O29     O    0.14898   0.53048   0.32312   1.000
    Zr30    Zr   0.87508   0.95213   0.99997   1.000
    O31     O    0.90442   0.91429   0.09210   1.000
    O32     O    0.92335   0.01581   0.91465   1.000
    O33     O    0.82960   0.96707   0.91460   1.000
    O34     O    0.84573   0.96044   0.90780   1.000
    O35     O    0.92052   0.92434   0.08531   1.000
    O36     O    0.82677   0.97307   0.08536   1.000
    Zr37    Zr   0.62498   0.54787   0.30000   1.000
    O38     O    0.64900   0.53048   0.32312   1.000
    O39     O    0.65432   0.53955   0.27968   1.000
    O40     O    0.64846   0.53429   0.30074   1.000
    O41     O    0.66235   0.54653   0.30486   1.000
    Zr42    Zr   0.62498   0.04787   0.30000   1.000
    O43     O    0.66234   0.04651   0.30486   1.000
    O44     O    0.64846   0.03428   0.30074   1.000
    O45     O    0.65432   0.03954   0.27968   1.000
    O46     O    0.64899   0.03046   0.32312   1.000
    Zr47    Zr   0.37506   0.95213   0.99997   1.000
    O48     O    0.42051   0.92434   0.08531   1.000
    O49     O    0.32959   0.96707   0.91460   1.000
    O50     O    0.42334   0.01581   0.91465   1.000
    O51     O    0.32675   0.97307   0.08536   1.000
    O52     O    0.40441   0.91429   0.09210   1.000
    O53     O    0.34572   0.96044   0.90780   1.000
    Zr54    Zr   0.52085   0.59187   0.39623   1.000
    O55     O    0.43749   0.57036   0.48228   1.000
    O56     O    0.53123   0.61464   0.48234   1.000
    O57     O    0.44216   0.55686   0.48701   1.000
    O58     O    0.58338   0.56179   0.36088   1.000
    O59     O    0.50353   0.66961   0.36496   1.000
    O60     O    0.43027   0.56845   0.36244   1.000
    O61     O    0.58392   0.55798   0.38327   1.000
    O62     O    0.59727   0.57403   0.36500   1.000
    Zr63    Zr   0.37506   0.45213   0.99997   1.000
    O64     O    0.42333   0.51581   0.91465   1.000
    O65     O    0.34572   0.46044   0.90779   1.000
    O66     O    0.40440   0.41429   0.09210   1.000
    O67     O    0.32958   0.46707   0.91459   1.000
    O68     O    0.32675   0.47308   0.08536   1.000
    O69     O    0.42051   0.42435   0.08531   1.000
    Zr70    Zr   0.22919   0.79006   0.60372   1.000
    O71     O    0.31976   0.74973   0.63756   1.000
    O72     O    0.24653   0.85218   0.63497   1.000
    O73     O    0.16666   0.74230   0.63913   1.000
    O74     O    0.31256   0.81156   0.51763   1.000
    O75     O    0.30786   0.80043   0.51290   1.000
    O76     O    0.15277   0.75660   0.63500   1.000
    O77     O    0.16615   0.74964   0.61674   1.000
    O78     O    0.21880   0.85583   0.51768   1.000
    Zr79    Zr   0.97920   0.90812   0.60376   1.000
    O80     O    0.96882   0.88535   0.51765   1.000
    O81     O    0.90279   0.92596   0.63499   1.000
    O82     O    0.99652   0.83039   0.63503   1.000
    O83     O    0.91614   0.94202   0.61673   1.000
    O84     O    0.06255   0.92962   0.51771   1.000
    O85     O    0.05788   0.94312   0.51297   1.000
    O86     O    0.91668   0.93820   0.63911   1.000
    O87     O    0.06978   0.93154   0.63755   1.000
    Zr88    Zr   0.47919   0.90812   0.60376   1.000
    O89     O    0.56977   0.93154   0.63755   1.000
    O90     O    0.41612   0.94202   0.61673   1.000
    O91     O    0.49652   0.83039   0.63503   1.000
    O92     O    0.46881   0.88535   0.51765   1.000
    O93     O    0.41666   0.93820   0.63911   1.000
    O94     O    0.56255   0.92962   0.51771   1.000
    O95     O    0.55788   0.94312   0.51297   1.000
    O96     O    0.40278   0.92596   0.63499   1.000
    Zr97    Zr   0.47919   0.40812   0.60376   1.000
    O98     O    0.41612   0.44202   0.61672   1.000
    O99     O    0.56977   0.43154   0.63754   1.000
    O100    O    0.49651   0.33039   0.63503   1.000
    O101    O    0.46881   0.38535   0.51765   1.000
    O102    O    0.55788   0.44314   0.51297   1.000
    O103    O    0.41666   0.43820   0.63910   1.000
    O104    O    0.56255   0.42964   0.51771   1.000
    O105    O    0.40277   0.42597   0.63499   1.000
    Zr106   Zr   0.77085   0.70993   0.39627   1.000
    O107    O    0.83390   0.75035   0.38325   1.000
    O108    O    0.84728   0.74340   0.36499   1.000
    O109    O    0.68028   0.75026   0.36243   1.000
    O110    O    0.69218   0.69956   0.48709   1.000
    O111    O    0.83338   0.75769   0.36086   1.000
    O112    O    0.78124   0.64415   0.48230   1.000
    O113    O    0.75351   0.64782   0.36503   1.000
    O114    O    0.68748   0.68843   0.48236   1.000
    Zr115   Zr   0.72921   0.79006   0.60372   1.000
    O116    O    0.66667   0.74230   0.63913   1.000
    O117    O    0.81257   0.81156   0.51763   1.000
    O118    O    0.80787   0.80043   0.51290   1.000
    O119    O    0.81977   0.74973   0.63756   1.000
    O120    O    0.65278   0.75660   0.63500   1.000
    O121    O    0.71881   0.85583   0.51768   1.000
    O122    O    0.74654   0.85218   0.63497   1.000
    O123    O    0.66616   0.74964   0.61674   1.000
    Zr124   Zr   0.77085   0.20993   0.39627   1.000
    O125    O    0.83389   0.25035   0.38325   1.000
    O126    O    0.75351   0.14780   0.36502   1.000
    O127    O    0.84727   0.24340   0.36499   1.000
    O128    O    0.68028   0.25026   0.36243   1.000
    O129    O    0.68748   0.18843   0.48236   1.000
    O130    O    0.69218   0.19956   0.48709   1.000
    O131    O    0.83338   0.25769   0.36086   1.000
    O132    O    0.78124   0.14415   0.48231   1.000
    Zr133   Zr   0.22919   0.29006   0.60372   1.000
    O134    O    0.31976   0.24973   0.63756   1.000
    O135    O    0.21879   0.35585   0.51768   1.000
    O136    O    0.15276   0.25660   0.63500   1.000
    O137    O    0.31256   0.31156   0.51763   1.000
    O138    O    0.30786   0.30043   0.51290   1.000
    O139    O    0.16614   0.24964   0.61675   1.000
    O140    O    0.24653   0.35218   0.63496   1.000
    O141    O    0.16666   0.24231   0.63913   1.000
    Zr142   Zr   0.27083   0.20993   0.39627   1.000
    O143    O    0.18027   0.25026   0.36243   1.000
    O144    O    0.33337   0.25769   0.36086   1.000
    O145    O    0.18747   0.18843   0.48236   1.000
    O146    O    0.34726   0.24340   0.36499   1.000
    O147    O    0.33388   0.25035   0.38325   1.000
    O148    O    0.19217   0.19956   0.48709   1.000
    O149    O    0.28123   0.14415   0.48231   1.000
    O150    O    0.25350   0.14780   0.36502   1.000
    Zr151   Zr   0.97920   0.40812   0.60376   1.000
    O152    O    0.06977   0.43154   0.63754   1.000
    O153    O    0.96882   0.38535   0.51765   1.000
    O154    O    0.05788   0.44314   0.51297   1.000
    O155    O    0.06255   0.42964   0.51771   1.000
    O156    O    0.99652   0.33039   0.63503   1.000
    O157    O    0.90279   0.42597   0.63499   1.000
    O158    O    0.91667   0.43820   0.63910   1.000
    O159    O    0.91614   0.44202   0.61672   1.000
    Zr160   Zr   0.02084   0.59187   0.39623   1.000
    O161    O    0.93027   0.56845   0.36244   1.000
    O162    O    0.00352   0.66961   0.36496   1.000
    O163    O    0.94216   0.55686   0.48701   1.000
    O164    O    0.03122   0.61464   0.48234   1.000
    O165    O    0.93749   0.57036   0.48228   1.000
    O166    O    0.09725   0.57403   0.36500   1.000
    O167    O    0.08337   0.56179   0.36088   1.000
    O168    O    0.08390   0.55798   0.38327   1.000
    Zr169   Zr   0.52085   0.09187   0.39623   1.000
    O170    O    0.44216   0.05686   0.48702   1.000
    O171    O    0.59726   0.07402   0.36500   1.000
    O172    O    0.43749   0.07036   0.48228   1.000
    O173    O    0.50352   0.16961   0.36496   1.000
    O174    O    0.58338   0.06178   0.36088   1.000
    O175    O    0.53123   0.11464   0.48234   1.000
    O176    O    0.58392   0.05796   0.38326   1.000
    O177    O    0.43027   0.06844   0.36244   1.000
    Zr178   Zr   0.12496   0.04787   0.30000   1.000
    O179    O    0.15431   0.03954   0.27968   1.000
    O180    O    0.16233   0.04651   0.30486   1.000
    O181    O    0.14898   0.03046   0.32312   1.000
    O182    O    0.14844   0.03428   0.30074   1.000
    Zr183   Zr   0.27084   0.70993   0.39627   1.000
    O184    O    0.28123   0.64415   0.48230   1.000
    O185    O    0.19217   0.69956   0.48709   1.000
    O186    O    0.25350   0.64782   0.36503   1.000
    O187    O    0.33337   0.75769   0.36086   1.000
    O188    O    0.34726   0.74340   0.36499   1.000
    O189    O    0.33388   0.75035   0.38325   1.000
    O190    O    0.18747   0.68843   0.48236   1.000
    O191    O    0.18027   0.75026   0.36243   1.000
    Zr192   Zr   0.87507   0.45213   0.99997   1.000
    O193    O    0.92051   0.42435   0.08531   1.000
    O194    O    0.82677   0.47308   0.08536   1.000
    O195    O    0.84573   0.46044   0.90779   1.000
    O196    O    0.82960   0.46707   0.91459   1.000
    O197    O    0.92334   0.51581   0.91465   1.000
    O198    O    0.90442   0.41429   0.09210   1.000
    Zr199   Zr   0.02084   0.09187   0.39623   1.000
    O200    O    0.93026   0.06844   0.36244   1.000
    O201    O    0.00352   0.16961   0.36496   1.000
    O202    O    0.03122   0.11464   0.48234   1.000
    O203    O    0.93749   0.07036   0.48228   1.000
    O204    O    0.94216   0.05686   0.48702   1.000
    O205    O    0.09725   0.07402   0.36500   1.000
    O206    O    0.08390   0.05796   0.38326   1.000
    O207    O    0.08336   0.06178   0.36088   1.000
loop_
    _geom_bond_atom_site_label_1
    _geom_bond_atom_site_label_2
    _geom_bond_distance
    _geom_bond_site_symmetry_2
    _ccdc_geom_bond_type
    Zr16   O17       1.65860      .   S
    N15    O17       3.72723      .   S
    Zr16   O18       1.60919      .   S
    N15    O18       3.78593      .   S
    Zr16   O19       1.10511      .   S
    N3     O19       2.57391      .   S
    Zr16   O20       1.14776      .   S
    N3     O20       2.52397      .   S
    Zr16   O21       1.21654      .   S
    N3     O21       2.42943      .   S
    Zr16   O22       1.45397      .   S
    N4     O22       3.21236  1_455   S
    Zr16   O23       1.57403      .   S
    N12    O23       3.49514      .   S
    Zr16   O24       1.66447      .   S
    N7     O24       3.93400      .   S
    Zr25   O26       0.40498      .   S
    N0     O26       1.15647      .   S
    Zr25   O27       0.53575      .   S
    N0     O27       1.18381      .   S
    Zr25   O28       0.47503      .   S
    N0     O28       1.19662      .   S
    Zr25   O29       0.55213      .   S
    N0     O29       1.18079      .   S
    Zr30   O31       1.56927  1_556   S
    N9     O31       3.56652      .   S
    Zr30   O32       1.66859  1_565   S
    N4     O32       3.95444  1_455   S
    Zr30   O33       1.52274      .   S
    N13    O33       3.62812      .   S
    Zr30   O34       1.56941      .   S
    N13    O34       3.56730      .   S
    Zr30   O35       1.52223  1_556   S
    N9     O35       3.62756      .   S
    Zr30   O36       1.66847  1_556   S
    N6     O36       3.95454  1_545   S
    Zr37   O38       0.55213      .   S
    N7     O38       1.18079      .   S
    Zr37   O39       0.53575      .   S
    N7     O39       1.18381      .   S
    Zr37   O40       0.40498      .   S
    N7     O40       1.15647      .   S
    Zr37   O41       0.47503      .   S
    N7     O41       1.19662      .   S
    Zr42   O43       0.47503      .   S
    N6     O43       1.19731      .   S
    Zr42   O44       0.40520      .   S
    N6     O44       1.15696      .   S
    Zr42   O45       0.53592      .   S
    N6     O45       1.18429      .   S
    Zr42   O46       0.55227      .   S
    N6     O46       1.18130      .   S
    Zr47   O48       1.52227  1_556   S
    N8     O48       3.62758      .   S
    Zr47   O49       1.52274      .   S
    N11    O49       3.62812      .   S
    Zr47   O50       1.66862  1_565   S
    N3     O50       3.95451      .   S
    Zr47   O51       1.66847  1_556   S
    N1     O51       3.95454  1_545   S
    Zr47   O52       1.56928  1_556   S
    N8     O52       3.56656      .   S
    Zr47   O53       1.56941      .   S
    N11    O53       3.56730      .   S
    Zr54   O55       1.60864      .   S
    N14    O55       3.78492      .   S
    Zr54   O56       1.66510      .   S
    N10    O56       3.93569      .   S
    Zr54   O57       1.65841      .   S
    N14    O57       3.72596      .   S
    Zr54   O58       1.21607      .   S
    N7     O58       2.42866      .   S
    Zr54   O59       1.57443      .   S
    N8     O59       3.49602      .   S
    Zr54   O60       1.45348      .   S
    N0     O60       3.21155      .   S
    Zr54   O61       1.10470      .   S
    N7     O61       2.57308      .   S
    Zr54   O62       1.14728      .   S
    N7     O62       2.52321      .   S
    Zr63   O64       1.66861      .   S
    N10    O64       3.95451      .   S
    Zr63   O65       1.56949      .   S
    N14    O65       3.56755      .   S
    Zr63   O66       1.56928  1_556   S
    N2     O66       3.56656      .   S
    Zr63   O67       1.52282      .   S
    N14    O67       3.62837      .   S
    Zr63   O68       1.66863  1_556   S
    N0     O68       3.95496      .   S
    Zr63   O69       1.52227  1_556   S
    N2     O69       3.62758      .   S
    Zr70   O71       1.45401      .   S
    N10    O71       3.21248      .   S
    Zr70   O72       1.57409      .   S
    N11    O72       3.49531      .   S
    Zr70   O73       1.21652      .   S
    N5     O73       2.42936      .   S
    Zr70   O74       1.60921      .   S
    N8     O74       3.78597      .   S
    Zr70   O75       1.65862      .   S
    N8     O75       3.72727      .   S
    Zr70   O76       1.14773      .   S
    N5     O76       2.52391      .   S
    Zr70   O77       1.10509      .   S
    N5     O77       2.57385      .   S
    Zr70   O78       1.66431      .   S
    N1     O78       3.93359  1_545   S
    Zr79   O80       1.66509      .   S
    N9     O80       3.93572      .   S
    Zr79   O81       1.14730      .   S
    N13    O81       2.52324      .   S
    Zr79   O82       1.57441      .   S
    N5     O82       3.49601  1_455   S
    Zr79   O83       1.10473      .   S
    N13    O83       2.57310      .   S
    Zr79   O84       1.60861  1_655   S
    N1     O84       3.78493  1_545   S
    Zr79   O85       1.65835  1_655   S
    N1     O85       3.72603  1_545   S
    Zr79   O86       1.21610      .   S
    N13    O86       2.42869      .   S
    Zr79   O87       1.45337  1_655   S
    N11    O87       3.21138      .   S
    Zr88   O89       1.45348      .   S
    N13    O89       3.21155      .   S
    Zr88   O90       1.10473      .   S
    N11    O90       2.57310      .   S
    Zr88   O91       1.57443      .   S
    N10    O91       3.49603      .   S
    Zr88   O92       1.66508      .   S
    N8     O92       3.93571      .   S
    Zr88   O93       1.21610      .   S
    N11    O93       2.42869      .   S
    Zr88   O94       1.60868      .   S
    N6     O94       3.78503  1_545   S
    Zr88   O95       1.65841      .   S
    N6     O95       3.72613  1_545   S
    Zr88   O96       1.14730      .   S
    N11    O96       2.52324      .   S
    Zr97   O98       1.10468      .   S
    N14    O98       2.57293      .   S
    Zr97   O99       1.45343      .   S
    N12    O99       3.21142      .   S
    Zr97   O100      1.57443      .   S
    N3     O100      3.49603      .   S
    Zr97   O101      1.66508      .   S
    N2     O101      3.93571      .   S
    Zr97   O102      1.65845      .   S
    N7     O102      3.72616      .   S
    Zr97   O103      1.21604      .   S
    N14    O103      2.42854      .   S
    Zr97   O104      1.60868      .   S
    N7     O104      3.78512      .   S
    Zr97   O105      1.14725      .   S
    N14    O105      2.52307      .   S
    Zr106  O107      1.10509      .   S
    N9     O107      2.57386      .   S
    Zr106  O108      1.14773      .   S
    N9     O108      2.52391      .   S
    Zr106  O109      1.45400      .   S
    N8     O109      3.21248      .   S
    Zr106  O110      1.65863      .   S
    N10    O110      3.72725      .   S
    Zr106  O111      1.21652      .   S
    N9     O111      2.42937      .   S
    Zr106  O112      1.66443      .   S
    N12    O112      3.93383      .   S
    Zr106  O113      1.57407      .   S
    N7     O113      3.49529      .   S
    Zr106  O114      1.60922      .   S
    N10    O114      3.78595      .   S
    Zr115  O116      1.21654      .   S
    N10    O116      2.42943      .   S
    Zr115  O117      1.60919      .   S
    N9     O117      3.78593      .   S
    Zr115  O118      1.65860      .   S
    N9     O118      3.72723      .   S
    Zr115  O119      1.45396      .   S
    N5     O119      3.21235  1_455   S
    Zr115  O120      1.14776      .   S
    N10    O120      2.52396      .   S
    Zr115  O121      1.66431      .   S
    N6     O121      3.93359  1_545   S
    Zr115  O122      1.57409      .   S
    N13    O122      3.49531      .   S
    Zr115  O123      1.10511      .   S
    N10    O123      2.57391      .   S
    Zr124  O125      1.10509      .   S
    N15    O125      2.57386      .   S
    Zr124  O126      1.57435      .   S
    N6     O126      3.49616      .   S
    Zr124  O127      1.14773      .   S
    N15    O127      2.52391      .   S
    Zr124  O128      1.45400      .   S
    N2     O128      3.21248      .   S
    Zr124  O129      1.60922      .   S
    N3     O129      3.78595      .   S
    Zr124  O130      1.65863      .   S
    N3     O130      3.72725      .   S
    Zr124  O131      1.21652      .   S
    N15    O131      2.42937      .   S
    Zr124  O132      1.66449      .   S
    N13    O132      3.93401  1_565   S
    Zr133  O134      1.45401      .   S
    N3     O134      3.21248      .   S
    Zr133  O135      1.66447      .   S
    N0     O135      3.93400      .   S
    Zr133  O136      1.14774      .   S
    N4     O136      2.52391      .   S
    Zr133  O137      1.60921      .   S
    N2     O137      3.78597      .   S
    Zr133  O138      1.65862      .   S
    N2     O138      3.72727      .   S
    Zr133  O139      1.10509      .   S
    N4     O139      2.57386      .   S
    Zr133  O140      1.57403      .   S
    N14    O140      3.49514      .   S
    Zr133  O141      1.21652      .   S
    N4     O141      2.42937      .   S
    Zr142  O143      1.45396      .   S
    N15    O143      3.21235  1_655   S
    Zr142  O144      1.21654      .   S
    N2     O144      2.42943      .   S
    Zr142  O145      1.60921      .   S
    N4     O145      3.78595      .   S
    Zr142  O146      1.14776      .   S
    N2     O146      2.52397      .   S
    Zr142  O147      1.10511      .   S
    N2     O147      2.57392      .   S
    Zr142  O148      1.65863      .   S
    N4     O148      3.72725      .   S
    Zr142  O149      1.66449      .   S
    N11    O149      3.93401  1_565   S
    Zr142  O150      1.57435      .   S
    N1     O150      3.49616      .   S
    Zr151  O152      1.45333  1_655   S
    N14    O152      3.21125      .   S
    Zr151  O153      1.66509      .   S
    N15    O153      3.93572      .   S
    Zr151  O154      1.65839  1_655   S
    N0     O154      3.72606      .   S
    Zr151  O155      1.60861  1_655   S
    N0     O155      3.78502      .   S
    Zr151  O156      1.57441      .   S
    N4     O156      3.49601  1_455   S
    Zr151  O157      1.14725      .   S
    N12    O157      2.52307      .   S
    Zr151  O158      1.21604      .   S
    N12    O158      2.42853      .   S
    Zr151  O159      1.10468      .   S
    N12    O159      2.57293      .   S
    Zr160  O161      1.45338  1_455   S
    N7     O161      3.21138      .   S
    Zr160  O162      1.57441      .   S
    N9     O162      3.49601  1_655   S
    Zr160  O163      1.65835  1_455   S
    N12    O163      3.72586      .   S
    Zr160  O164      1.66511      .   S
    N5     O164      3.93569      .   S
    Zr160  O165      1.60857  1_455   S
    N12    O165      3.78482      .   S
    Zr160  O166      1.14728      .   S
    N0     O166      2.52321      .   S
    Zr160  O167      1.21607      .   S
    N0     O167      2.42866      .   S
    Zr160  O168      1.10470      .   S
    N0     O168      2.57308      .   S
    Zr169  O170      1.65847      .   S
    N11    O170      3.72615  1_565   S
    Zr169  O171      1.14743      .   S
    N6     O171      2.52387      .   S
    Zr169  O172      1.60870      .   S
    N11    O172      3.78511  1_565   S
    Zr169  O173      1.57443      .   S
    N2     O173      3.49602      .   S
    Zr169  O174      1.21629      .   S
    N6     O174      2.42925      .   S
    Zr169  O175      1.66510      .   S
    N3     O175      3.93569      .   S
    Zr169  O176      1.10493      .   S
    N6     O176      2.57364      .   S
    Zr169  O177      1.45362      .   S
    N1     O177      3.21201      .   S
    Zr178  O179      0.53592      .   S
    N1     O179      1.18429      .   S
    Zr178  O180      0.47503      .   S
    N1     O180      1.19731      .   S
    Zr178  O181      0.55227      .   S
    N1     O181      1.18130      .   S
    Zr178  O182      0.40520      .   S
    N1     O182      1.15696      .   S
    Zr183  O184      1.66443      .   S
    N14    O184      3.93383      .   S
    Zr183  O185      1.65861      .   S
    N5     O185      3.72720      .   S
    Zr183  O186      1.57407      .   S
    N0     O186      3.49529      .   S
    Zr183  O187      1.21654      .   S
    N8     O187      2.42943      .   S
    Zr183  O188      1.14776      .   S
    N8     O188      2.52397      .   S
    Zr183  O189      1.10511      .   S
    N8     O189      2.57392      .   S
    Zr183  O190      1.60920      .   S
    N5     O190      3.78590      .   S
    Zr183  O191      1.45396      .   S
    N9     O191      3.21235  1_655   S
    Zr192  O193      1.52223  1_556   S
    N15    O193      3.62756      .   S
    Zr192  O194      1.66863  1_556   S
    N7     O194      3.95496      .   S
    Zr192  O195      1.56949      .   S
    N12    O195      3.56755      .   S
    Zr192  O196      1.52282      .   S
    N12    O196      3.62837      .   S
    Zr192  O197      1.66860      .   S
    N5     O197      3.95448  1_455   S
    Zr192  O198      1.56927  1_556   S
    N15    O198      3.56652      .   S
    Zr199  O200      1.45351  1_455   S
    N6     O200      3.21183      .   S
    Zr199  O201      1.57441      .   S
    N15    O201      3.49601  1_655   S
    Zr199  O202      1.66512      .   S
    N4     O202      3.93575      .   S
    Zr199  O203      1.60862  1_455   S
    N13    O203      3.78501  1_565   S
    Zr199  O204      1.65840  1_455   S
    N13    O204      3.72605  1_565   S
    Zr199  O205      1.14744      .   S
    N1     O205      2.52388      .   S
    Zr199  O206      1.10494      .   S
    N1     O206      2.57365      .   S
    Zr199  O207      1.21629      .   S
    N1     O207      2.42925      .   S
