# CIF file generated by openbabel 2.4.90, see http://openbabel.sf.net
data_I
_chemical_name_common ''
_cell_length_a 15.084
_cell_length_b 12.455
_cell_length_c 25.541
_cell_angle_alpha 70.801
_cell_angle_beta 81.473
_cell_angle_gamma 72.345
_space_group_name_H-M_alt 'P 1'
_space_group_name_Hall 'P 1'
loop_
    _symmetry_equiv_pos_as_xyz
    x,y,z
loop_
    _atom_site_label
    _atom_site_type_symbol
    _atom_site_fract_x
    _atom_site_fract_y
    _atom_site_fract_z
    _atom_site_occupancy
    Zn0     Zn   0.98658   0.89807   0.96433   1.000
    Zn1     Zn   0.41831   0.60344   0.53361   1.000
    Zn2     Zn   0.91833   0.60346   0.53363   1.000
    Zn3     Zn   0.01383   0.10325   0.03351   1.000
    Zn4     Zn   0.51392   0.10316   0.03352   1.000
    Zn5     Zn   0.08202   0.39811   0.46425   1.000
    Zn6     Zn   0.58200   0.39807   0.46420   1.000
    H7      H    0.20630   0.97149   0.84600   1.000
    H8      H    0.70633   0.97144   0.84608   1.000
    H9      H    0.30435   0.05478   0.76635   1.000
    H10     H    0.80437   0.05477   0.76634   1.000
    H11     H    0.06592   0.19749   0.66460   1.000
    H12     H    0.56595   0.19738   0.66465   1.000
    H13     H    0.46893   0.11369   0.74600   1.000
    H14     H    0.96888   0.11383   0.74601   1.000
    H15     H    0.37804   0.04380   0.68492   1.000
    H16     H    0.87808   0.04379   0.68490   1.000
    H17     H    0.47836   0.14255   0.61074   1.000
    H18     H    0.97838   0.14257   0.61074   1.000
    H19     H    0.24031   0.43575   0.55242   1.000
    H20     H    0.74030   0.43575   0.55243   1.000
    H21     H    0.13959   0.33760   0.62488   1.000
    H22     H    0.63960   0.33755   0.62487   1.000
    H23     H    0.35493   0.87447   0.89662   1.000
    H24     H    0.85483   0.87458   0.89660   1.000
    H25     H    0.27258   0.72542   0.89857   1.000
    H26     H    0.77248   0.72553   0.89856   1.000
    H27     H    0.40514   0.50483   0.05120   1.000
    H28     H    0.90515   0.50484   0.05119   1.000
    H29     H    0.47655   0.66530   0.04467   1.000
    H30     H    0.97654   0.66532   0.04463   1.000
    H31     H    0.34315   0.41938   0.98423   1.000
    Zn32    Zn   0.48669   0.89797   0.96433   1.000
    H33     H    0.84313   0.41946   0.98410   1.000
    H34     H    0.26302   0.52372   0.93573   1.000
    H35     H    0.76292   0.52385   0.93500   1.000
    H36     H    0.11489   0.53072   0.65201   1.000
    H37     H    0.61487   0.53073   0.65198   1.000
    H38     H    0.21469   0.44744   0.73171   1.000
    H39     H    0.71466   0.44744   0.73169   1.000
    H40     H    0.49670   0.30477   0.83344   1.000
    H41     H    0.99671   0.30486   0.83349   1.000
    H42     H    0.39858   0.38828   0.75211   1.000
    H43     H    0.89858   0.38839   0.75218   1.000
    H44     H    0.24238   0.45803   0.81321   1.000
    H45     H    0.74230   0.45804   0.81318   1.000
    H46     H    0.35506   0.35887   0.88729   1.000
    H47     H    0.85495   0.35893   0.88728   1.000
    H48     H    0.23431   0.06592   0.94547   1.000
    H49     H    0.73425   0.06594   0.94546   1.000
    H50     H    0.12064   0.16447   0.87314   1.000
    H51     H    0.62062   0.16444   0.87311   1.000
    H52     H    0.24062   0.62610   0.60131   1.000
    H53     H    0.74066   0.62628   0.60139   1.000
    H54     H    0.08448   0.77493   0.59951   1.000
    H55     H    0.58455   0.77515   0.59957   1.000
    H56     H    0.18317   0.99656   0.44718   1.000
    H57     H    0.68317   0.99651   0.44713   1.000
    H58     H    0.33171   0.83621   0.45355   1.000
    H59     H    0.83169   0.83614   0.45352   1.000
    H60     H    0.04476   0.08127   0.51447   1.000
    H61     H    0.54481   0.08137   0.51444   1.000
    H62     H    0.49229   0.97670   0.56240   1.000
    H63     H    0.99226   0.97656   0.56248   1.000
    H64     H    0.29409   0.03023   0.15182   1.000
    H65     H    0.79408   0.03022   0.15183   1.000
    H66     H    0.19607   0.94680   0.23154   1.000
    H67     H    0.69607   0.94679   0.23155   1.000
    H68     H    0.43445   0.80427   0.33325   1.000
    H69     H    0.93445   0.80428   0.33326   1.000
    H70     H    0.03149   0.88790   0.25191   1.000
    H71     H    0.53150   0.88789   0.25190   1.000
    H72     H    0.12232   0.95779   0.31298   1.000
    H73     H    0.62232   0.95779   0.31299   1.000
    H74     H    0.02201   0.85907   0.38717   1.000
    H75     H    0.52201   0.85905   0.38717   1.000
    H76     H    0.26007   0.56592   0.44552   1.000
    H77     H    0.76006   0.56589   0.44552   1.000
    H78     H    0.36079   0.66406   0.37307   1.000
    H79     H    0.86079   0.66405   0.37307   1.000
    H80     H    0.14591   0.12626   0.10110   1.000
    H81     H    0.64606   0.12616   0.10110   1.000
    H82     H    0.22828   0.27520   0.09931   1.000
    H83     H    0.72842   0.27511   0.09928   1.000
    H84     H    0.09526   0.49653   0.94680   1.000
    H85     H    0.59522   0.49652   0.94691   1.000
    H86     H    0.02390   0.33611   0.95328   1.000
    H87     H    0.52389   0.33607   0.95331   1.000
    H88     H    0.15751   0.58155   0.01388   1.000
    H89     H    0.65752   0.58150   0.01392   1.000
    H90     H    0.23763   0.47709   0.06237   1.000
    H91     H    0.73772   0.47702   0.06236   1.000
    H92     H    0.38522   0.47071   0.34601   1.000
    H93     H    0.88525   0.47070   0.34603   1.000
    H94     H    0.28540   0.55404   0.26630   1.000
    H95     H    0.78543   0.55399   0.26630   1.000
    H96     H    0.00338   0.69668   0.16450   1.000
    H97     H    0.50337   0.69670   0.16455   1.000
    H98     H    0.10154   0.61309   0.24587   1.000
    H99     H    0.60153   0.61308   0.24586   1.000
    C100    C    0.53093   0.99547   0.52198   1.000
    C101    C    0.47908   0.01151   0.14696   1.000
    C102    C    0.97907   0.01152   0.14690   1.000
    C103    C    0.41879   0.96631   0.19674   1.000
    H104    H    0.25787   0.54324   0.18483   1.000
    H105    H    0.75790   0.54318   0.18486   1.000
    H106    H    0.14524   0.64221   0.11072   1.000
    H107    H    0.64528   0.64212   0.11070   1.000
    H108    H    0.26588   0.93527   0.05247   1.000
    H109    H    0.76590   0.93521   0.05248   1.000
    H110    H    0.37945   0.83691   0.12486   1.000
    H111    H    0.87946   0.83687   0.12489   1.000
    H112    H    0.25978   0.37524   0.39667   1.000
    H113    H    0.75972   0.37511   0.39662   1.000
    H114    H    0.41594   0.22646   0.39859   1.000
    H115    H    0.91587   0.22630   0.39854   1.000
    H116    H    0.31717   0.00513   0.55099   1.000
    H117    H    0.81717   0.00514   0.55102   1.000
    H118    H    0.16860   0.16545   0.54450   1.000
    H119    H    0.66861   0.16547   0.54450   1.000
    H120    H    0.45563   0.92024   0.48371   1.000
    H121    H    0.95559   0.92017   0.48370   1.000
    H122    H    0.00811   0.02485   0.43571   1.000
    H123    H    0.50814   0.02493   0.43570   1.000
    C124    C    0.02136   0.99012   0.85092   1.000
    C125    C    0.52141   0.99002   0.85090   1.000
    C126    C    0.08161   0.03543   0.80116   1.000
    C127    C    0.58165   0.03533   0.80115   1.000
    C128    C    0.17670   0.00000   0.80580   1.000
    C129    C    0.67674   0.00000   0.80579   1.000
    C130    C    0.23174   0.06520   0.76046   1.000
    C131    C    0.73177   0.06516   0.76045   1.000
    C132    C    0.25990   0.62929   0.15586   1.000
    C133    C    0.75992   0.62923   0.15589   1.000
    C134    C    0.19675   0.68427   0.11428   1.000
    C135    C    0.69678   0.68419   0.11430   1.000
    C136    C    0.19651   0.79641   0.07740   1.000
    C137    C    0.19314   0.13054   0.70866   1.000
    C138    C    0.69318   0.13047   0.70865   1.000
    C139    C    0.09772   0.14667   0.70417   1.000
    C140    C    0.59775   0.14657   0.70416   1.000
    C141    C    0.04293   0.09951   0.74959   1.000
    C142    C    0.54297   0.09940   0.74958   1.000
    C143    C    0.25137   0.18417   0.66147   1.000
    C144    C    0.75139   0.18413   0.66146   1.000
    C145    C    0.34751   0.12983   0.65590   1.000
    C146    C    0.84754   0.12981   0.65591   1.000
    C147    C    0.40402   0.18469   0.61431   1.000
    C148    C    0.90404   0.18470   0.61430   1.000
    C149    C    0.36662   0.29682   0.57745   1.000
    C150    C    0.86663   0.29683   0.57745   1.000
    C151    C    0.27047   0.34973   0.58138   1.000
    C152    C    0.77048   0.34972   0.58138   1.000
    C153    C    0.21363   0.29331   0.62210   1.000
    C154    C    0.71364   0.29327   0.62211   1.000
    C155    C    0.42828   0.36119   0.53683   1.000
    C156    C    0.92828   0.36123   0.53684   1.000
    C157    C    0.36171   0.79193   0.93039   1.000
    C158    C    0.86163   0.79202   0.93030   1.000
    C159    C    0.31804   0.70752   0.93160   1.000
    C160    C    0.81797   0.70761   0.93164   1.000
    C161    C    0.33364   0.60047   0.97458   1.000
    C162    C    0.83359   0.60054   0.97455   1.000
    C163    C    0.39100   0.58558   0.01635   1.000
    C164    C    0.89099   0.58562   0.01631   1.000
    C165    C    0.43150   0.67390   0.01309   1.000
    C166    C    0.93148   0.67394   0.01306   1.000
    C167    C    0.29018   0.50540   0.97632   1.000
    C168    C    0.79014   0.50547   0.97628   1.000
    C169    C    0.44180   0.51172   0.64713   1.000
    C170    C    0.94180   0.51177   0.64717   1.000
    C171    C    0.49969   0.46671   0.69692   1.000
    C172    C    0.99969   0.46676   0.69696   1.000
    C173    C    0.08871   0.48355   0.69232   1.000
    C174    C    0.58870   0.48353   0.69228   1.000
    C175    C    0.14433   0.43705   0.73760   1.000
    C176    C    0.64430   0.43703   0.73760   1.000
    C177    C    0.11252   0.37170   0.78945   1.000
    C178    C    0.61249   0.37165   0.78942   1.000
    C179    C    0.02288   0.35565   0.79398   1.000
    C180    C    0.52286   0.35558   0.79393   1.000
    C181    C    0.46724   0.40267   0.74850   1.000
    C182    C    0.96724   0.40275   0.74857   1.000
    C183    C    0.17402   0.31787   0.83661   1.000
    C184    C    0.67398   0.31785   0.83658   1.000
    C185    C    0.24032   0.37198   0.84216   1.000
    C186    C    0.74025   0.37198   0.84210   1.000
    C187    C    0.30351   0.31689   0.88372   1.000
    C188    C    0.80342   0.31693   0.88371   1.000
    C189    C    0.30373   0.20472   0.92054   1.000
    C190    C    0.80365   0.20477   0.92053   1.000
    C191    C    0.23594   0.15200   0.91658   1.000
    C192    C    0.73589   0.15202   0.91656   1.000
    C193    C    0.17121   0.20864   0.87589   1.000
    C194    C    0.67117   0.20863   0.87587   1.000
    C195    C    0.37732   0.14007   0.96110   1.000
    C196    C    0.87722   0.14017   0.96111   1.000
    C197    C    0.22295   0.70878   0.56763   1.000
    C198    C    0.72299   0.70891   0.56768   1.000
    C199    C    0.13760   0.79310   0.56647   1.000
    C200    C    0.63765   0.79325   0.56651   1.000
    C201    C    0.12110   0.90035   0.52367   1.000
    C202    C    0.62113   0.90044   0.52367   1.000
    C203    C    0.19200   0.91560   0.48196   1.000
    C204    C    0.69201   0.91561   0.48194   1.000
    C205    C    0.27511   0.82735   0.48511   1.000
    C206    C    0.77511   0.82734   0.48510   1.000
    C207    C    0.03090   0.99537   0.52199   1.000
    C208    C    0.91878   0.96631   0.19675   1.000
    C209    C    0.32370   0.98302   0.19211   1.000
    C210    C    0.82369   0.98301   0.19212   1.000
    C211    C    0.26867   0.93644   0.23740   1.000
    C212    C    0.76866   0.93644   0.23745   1.000
    C213    C    0.30724   0.87112   0.28925   1.000
    C214    C    0.80724   0.87112   0.28926   1.000
    C215    C    0.40266   0.85506   0.29374   1.000
    C216    C    0.90266   0.85506   0.29375   1.000
    C217    C    0.45745   0.90222   0.24832   1.000
    C218    C    0.95745   0.90223   0.24832   1.000
    C219    C    0.24902   0.81748   0.33645   1.000
    C220    C    0.74901   0.81747   0.33646   1.000
    C221    C    0.15286   0.87178   0.34198   1.000
    C222    C    0.65286   0.87177   0.34199   1.000
    C223    C    0.09635   0.81694   0.38360   1.000
    C224    C    0.59635   0.81692   0.38360   1.000
    C225    C    0.13375   0.70483   0.42048   1.000
    C226    C    0.63374   0.70481   0.42048   1.000
    C227    C    0.22990   0.65193   0.41655   1.000
    C228    C    0.72989   0.65190   0.41655   1.000
    C229    C    0.28674   0.70834   0.37581   1.000
    C230    C    0.78674   0.70832   0.37581   1.000
    C231    C    0.07206   0.64049   0.46100   1.000
    C232    C    0.57205   0.64046   0.46106   1.000
    C233    C    0.13906   0.20892   0.06743   1.000
    C234    C    0.63917   0.20884   0.06741   1.000
    C235    C    0.18270   0.29330   0.06626   1.000
    C236    C    0.68279   0.29323   0.06625   1.000
    C237    C    0.16701   0.40049   0.02343   1.000
    C238    C    0.66705   0.40045   0.02343   1.000
    C239    C    0.10948   0.41564   0.98169   1.000
    C240    C    0.60948   0.41561   0.98171   1.000
    C241    C    0.06903   0.32734   0.98485   1.000
    C242    C    0.56905   0.32729   0.98487   1.000
    C243    C    0.21046   0.49551   0.02177   1.000
    C244    C    0.71049   0.49548   0.02177   1.000
    C245    C    0.05840   0.48939   0.35080   1.000
    C246    C    0.55838   0.48935   0.35081   1.000
    C247    C    0.00045   0.53463   0.30106   1.000
    C248    C    0.50044   0.53462   0.30105   1.000
    C249    C    0.41139   0.51788   0.30570   1.000
    C250    C    0.91142   0.51787   0.30572   1.000
    C251    C    0.35576   0.56444   0.26039   1.000
    C252    C    0.85579   0.56440   0.26040   1.000
    C253    C    0.38760   0.62975   0.20850   1.000
    C254    C    0.88762   0.62972   0.20859   1.000
    C255    C    0.47721   0.64588   0.20406   1.000
    C256    C    0.97722   0.64586   0.20408   1.000
    C257    C    0.03288   0.59871   0.24947   1.000
    C258    C    0.53287   0.59870   0.24946   1.000
    C259    C    0.32613   0.68349   0.16141   1.000
    C260    C    0.82615   0.68345   0.16143   1.000
    C261    C    0.69654   0.79633   0.07745   1.000
    C262    C    0.26424   0.84922   0.08139   1.000
    C263    C    0.76426   0.84916   0.08140   1.000
    C264    C    0.32893   0.79269   0.12210   1.000
    C265    C    0.82894   0.79265   0.12212   1.000
    C266    C    0.12296   0.86096   0.03684   1.000
    C267    C    0.62301   0.86085   0.03684   1.000
    C268    C    0.27743   0.29263   0.43000   1.000
    C269    C    0.77738   0.29253   0.43030   1.000
    C270    C    0.36280   0.20834   0.43162   1.000
    C271    C    0.86275   0.20822   0.43159   1.000
    C272    C    0.37929   0.10117   0.47447   1.000
    C273    C    0.87925   0.10110   0.47447   1.000
    C274    C    0.30836   0.08602   0.51610   1.000
    C275    C    0.80834   0.08600   0.51618   1.000
    C276    C    0.22523   0.17425   0.51295   1.000
    C277    C    0.72522   0.17424   0.51296   1.000
    C278    C    0.46949   0.00614   0.47618   1.000
    C279    C    0.96946   0.00606   0.47619   1.000
    N280    N    0.41851   0.77508   0.97000   1.000
    N281    N    0.91845   0.77515   0.97028   1.000
    N282    N    0.29134   0.72594   0.52776   1.000
    N283    N    0.79136   0.72600   0.52778   1.000
    N284    N    0.08212   0.22600   0.02755   1.000
    N285    N    0.58220   0.22593   0.02756   1.000
    N286    N    0.20900   0.27556   0.47025   1.000
    N287    N    0.70898   0.27551   0.47024   1.000
    O288    O    0.06320   0.94722   0.89787   1.000
    O289    O    0.56329   0.94700   0.89785   1.000
    O290    O    0.43870   0.99594   0.84652   1.000
    O291    O    0.93866   0.99600   0.84652   1.000
    O292    O    0.39608   0.47210   0.51322   1.000
    O293    O    0.89607   0.47214   0.51324   1.000
    O294    O    0.01176   0.30314   0.52689   1.000
    O295    O    0.51176   0.30309   0.52680   1.000
    O296    O    0.48554   0.55538   0.60022   1.000
    O297    O    0.98553   0.55538   0.60025   1.000
    O298    O    0.36016   0.50476   0.65143   1.000
    O299    O    0.86014   0.50485   0.65148   1.000
    O300    O    0.38843   0.02923   0.98473   1.000
    O301    O    0.88835   0.02932   0.98475   1.000
    O302    O    0.42700   0.19790   0.97099   1.000
    O303    O    0.92686   0.19804   0.97100   1.000
    O304    O    0.43701   0.05537   0.10006   1.000
    O305    O    0.93698   0.05539   0.10007   1.000
    O306    O    0.06202   0.00465   0.15128   1.000
    O307    O    0.56204   0.00464   0.15127   1.000
    O308    O    0.10419   0.52955   0.48466   1.000
    O309    O    0.60416   0.52952   0.48463   1.000
    O310    O    0.48866   0.69870   0.47112   1.000
    O311    O    0.98867   0.69872   0.47113   1.000
    O312    O    0.01463   0.44582   0.39774   1.000
    O313    O    0.51464   0.44568   0.39772   1.000
    O314    O    0.14015   0.49599   0.34651   1.000
    O315    O    0.64011   0.49600   0.34650   1.000
    O316    O    0.11177   0.97180   0.01318   1.000
    O317    O    0.61182   0.97169   0.01318   1.000
    O318    O    0.07338   0.80307   0.02690   1.000
    O319    O    0.57346   0.80294   0.02690   1.000
loop_
    _geom_bond_atom_site_label_1
    _geom_bond_atom_site_label_2
    _geom_bond_distance
    _geom_bond_site_symmetry_2
    _ccdc_geom_bond_type
    C166   C164      1.38648      .   S
    C166   H30       1.08863      .   S
    C166   N281      1.35245  1_554   S
    C165   C163      1.38649      .   S
    C165   H29       1.08874      .   S
    C165   N280      1.35638  1_554   S
    O317   Zn4       1.99927  1_565   S
    O317   C267      1.28056      .   S
    O316   Zn3       1.99927  1_565   S
    O316   C266      1.28060      .   S
    H88    C243      1.10158      .   S
    H89    C244      1.10159      .   S
    C164   H28       1.08999      .   S
    C164   C162      1.40271  1_554   S
    C163   H27       1.08940      .   S
    C163   C161      1.40272  1_554   S
    C243   C237      1.50373      .   S
    C243   H90       1.09929      .   S
    C243   C167      1.54618  1_554   S
    C244   C238      1.50375      .   S
    C244   H91       1.09935      .   S
    C244   C168      1.54618  1_554   S
    C237   C235      1.39987      .   S
    C237   C239      1.40280  1_554   S
    C238   C236      1.39997      .   S
    C238   C240      1.40279  1_554   S
    O319   C267      1.28336      .   S
    O319   Zn32      2.02594  1_554   S
    O318   C266      1.28342      .   S
    O318   Zn0       2.02612  1_454   S
    N284   Zn3       2.04387      .   S
    N284   C233      1.35143      .   S
    N284   C241      1.35234  1_554   S
    N285   Zn4       2.04387      .   S
    N285   C234      1.35119      .   S
    N285   C242      1.35240  1_554   S
    Zn3    O305      1.93839  1_455   S
    Zn3    O303      2.02632  1_454   S
    Zn4    O304      1.93840      .   S
    Zn4    O302      2.02610  1_554   S
    C266   C136      1.48404      .   S
    C267   C261      1.48461      .   S
    H108   C262      1.08855      .   S
    H109   C263      1.08852      .   S
    C236   C234      1.38996      .   S
    C236   H83       1.09042      .   S
    C235   C233      1.38986      .   S
    C235   H82       1.09050      .   S
    C234   H81       1.09108      .   S
    C233   H80       1.09073      .   S
    C136   C262      1.40343      .   S
    C136   C134      1.40383      .   S
    C261   C263      1.40304      .   S
    C261   C135      1.40353      .   S
    C262   C264      1.38978      .   S
    C263   C265      1.38990      .   S
    O304   C101      1.31183      .   S
    O305   C102      1.31036      .   S
    H107   C135      1.08908      .   S
    H106   C134      1.08874      .   S
    C134   C132      1.38929      .   S
    C135   C133      1.38940      .   S
    C264   H110      1.08863      .   S
    C264   C259      1.40845      .   S
    C265   H111      1.08870      .   S
    C265   C260      1.40844      .   S
    C102   O306      1.24726  1_655   S
    C102   C208      1.50360  1_545   S
    C101   O307      1.24695      .   S
    C101   C103      1.50247  1_545   S
    H64    C209      1.08772  1_545   S
    H65    C210      1.08773  1_545   S
    C132   C259      1.40998      .   S
    C132   H104      1.09027      .   S
    C133   C260      1.40992      .   S
    C133   H105      1.09025      .   S
    C259   C253      1.47619      .   S
    C260   C254      1.47753      .   S
    H96    C256      1.09115  1_455   S
    H97    C255      1.08996      .   S
    C209   C103      1.40278      .   S
    C209   C211      1.38909      .   S
    C210   C208      1.40279      .   S
    C210   C212      1.38968      .   S
    C103   C217      1.40236      .   S
    C208   C218      1.40217      .   S
    C255   C253      1.40876      .   S
    C255   C258      1.39142      .   S
    C256   C254      1.40857      .   S
    C256   C257      1.39123  1_655   S
    C253   C251      1.40996      .   S
    C254   C252      1.40849      .   S
    H66    C211      1.09015      .   S
    H67    C212      1.09040      .   S
    C211   C213      1.40959      .   S
    C212   C214      1.40878      .   S
    H99    C258      1.08925      .   S
    H98    C257      1.08924      .   S
    C217   H71       1.08921      .   S
    C217   C215      1.39137      .   S
    C218   H70       1.08921  1_655   S
    C218   C216      1.39150      .   S
    C258   C248      1.40238      .   S
    C257   C247      1.40232      .   S
    C251   H94       1.09041      .   S
    C251   C249      1.38962      .   S
    C252   H95       1.09041      .   S
    C252   C250      1.38982      .   S
    C213   C215      1.40851      .   S
    C213   C219      1.47757      .   S
    C214   C216      1.40851      .   S
    C214   C220      1.47758      .   S
    C215   H68       1.09002      .   S
    C216   H69       1.09001      .   S
    C248   C249      1.40284      .   S
    C248   C246      1.50207      .   S
    C247   C250      1.40281  1_455   S
    C247   C245      1.50168      .   S
    C249   H92       1.08776      .   S
    C250   H93       1.08777      .   S
    H72    C221      1.09018      .   S
    H73    C222      1.09022      .   S
    C219   C221      1.40995      .   S
    C219   C229      1.40856      .   S
    C220   C222      1.40996      .   S
    C220   C230      1.40847      .   S
    C221   C223      1.38925      .   S
    C222   C224      1.38920      .   S
    O315   C246      1.24689      .   S
    O314   C245      1.24693      .   S
    C245   O312      1.31238      .   S
    C246   O313      1.31199      .   S
    H79    C230      1.08868      .   S
    H78    C229      1.08868      .   S
    C230   C228      1.38988      .   S
    C229   C227      1.38980      .   S
    C224   H75       1.08876      .   S
    C224   C226      1.40357      .   S
    C223   H74       1.08878      .   S
    C223   C225      1.40351      .   S
    H113   C269      1.09025      .   S
    H112   C268      1.08586      .   S
    O313   Zn6       1.93681      .   S
    O312   Zn5       1.93752      .   S
    H115   C271      1.09048      .   S
    H114   C270      1.09045      .   S
    C228   C226      1.40301      .   S
    C228   H77       1.08861      .   S
    C227   C225      1.40302      .   S
    C227   H76       1.08858      .   S
    C226   C232      1.48418      .   S
    C225   C231      1.48343      .   S
    C268   C270      1.38908      .   S
    C268   N286      1.35726      .   S
    C269   C271      1.38979      .   S
    C269   N287      1.35228      .   S
    C271   C273      1.39998      .   S
    C270   C272      1.39993      .   S
    H123   C278      1.09931      .   S
    H122   C279      1.09936  1_455   S
    H57    C204      1.09002      .   S
    H56    C203      1.09002      .   S
    H59    C206      1.08886      .   S
    H58    C205      1.08881      .   S
    C231   O311      1.28395  1_455   S
    C231   O308      1.28084      .   S
    C232   O310      1.28353      .   S
    C232   O309      1.28050      .   S
    Zn6    N287      2.04487      .   S
    Zn6    O309      2.00250      .   S
    Zn6    O295      2.02298      .   S
    Zn5    N286      2.04489      .   S
    Zn5    O308      2.00218      .   S
    Zn5    O294      2.02356      .   S
    N287   C277      1.35213      .   S
    N286   C276      1.35215      .   S
    O310   Zn1       2.02413      .   S
    O311   Zn2       2.02419      .   S
    C272   C278      1.50364      .   S
    C272   C274      1.40141      .   S
    C273   C279      1.50365      .   S
    C273   C275      1.40237      .   S
    C278   H120      1.10178  1_545   S
    C278   C100      1.54583  1_545   S
    C279   H121      1.10181  1_545   S
    C279   C207      1.54569  1_645   S
    C204   C206      1.38634      .   S
    C204   C202      1.40248      .   S
    C203   C205      1.38635      .   S
    C203   C201      1.40251      .   S
    C206   N283      1.35215      .   S
    C205   N282      1.35220      .   S
    C276   C274      1.38651      .   S
    C276   H118      1.08880      .   S
    C277   C275      1.38640      .   S
    C277   H119      1.08845      .   S
    O292   Zn1       2.00107      .   S
    O292   C155      1.28059      .   S
    O293   Zn2       2.00107      .   S
    O293   C156      1.28056      .   S
    H61    C100      1.10176  1_545   S
    H60    C207      1.10177  1_545   S
    C274   H116      1.09095      .   S
    C275   H117      1.09001      .   S
    C100   C202      1.50363      .   S
    C100   H62       1.09804      .   S
    C207   C201      1.50365      .   S
    C207   H63       1.09944  1_455   S
    C201   C199      1.39991      .   S
    C202   C200      1.39994      .   S
    O295   C155      1.28392      .   S
    O294   C156      1.28340  1_455   S
    N282   Zn1       2.04473      .   S
    N282   C197      1.35130      .   S
    N283   Zn2       2.04482      .   S
    N283   C198      1.35139      .   S
    Zn1    O296      1.93765      .   S
    Zn2    O297      1.93769      .   S
    C155   C149      1.48427      .   S
    C156   C150      1.48429      .   S
    H19    C151      1.08856      .   S
    H20    C152      1.08852      .   S
    C199   C197      1.38998      .   S
    C199   H54       1.09046      .   S
    C200   C198      1.38998      .   S
    C200   H55       1.09046      .   S
    C197   H52       1.09105      .   S
    C198   H53       1.09112      .   S
    C150   C152      1.40299      .   S
    C150   C148      1.40345      .   S
    C149   C151      1.40299      .   S
    C149   C147      1.40348      .   S
    C151   C153      1.38957      .   S
    C152   C154      1.38976      .   S
    O296   C169      1.31188      .   S
    O297   C170      1.31190      .   S
    H17    C147      1.08875      .   S
    H18    C148      1.08874      .   S
    C148   C146      1.38932      .   S
    C147   C145      1.38902      .   S
    C153   H21       1.08872      .   S
    C153   C143      1.40867      .   S
    C154   H22       1.08868      .   S
    C154   C144      1.40849      .   S
    C169   O298      1.24684      .   S
    C169   C171      1.50240      .   S
    C170   O299      1.24684      .   S
    C170   C172      1.50246      .   S
    H37    C174      1.08774      .   S
    H36    C173      1.08787      .   S
    C145   C143      1.40999      .   S
    C145   H15       1.09045      .   S
    C146   C144      1.40994      .   S
    C146   H16       1.09016      .   S
    C144   C138      1.47746      .   S
    C143   C137      1.47742      .   S
    H11    C139      1.09132      .   S
    H12    C140      1.09008      .   S
    C174   C171      1.40283      .   S
    C174   C176      1.38963      .   S
    C173   C172      1.40283  1_455   S
    C173   C175      1.38890      .   S
    C171   C181      1.40207      .   S
    C172   C182      1.40246      .   S
    C140   C138      1.40850      .   S
    C140   C142      1.39132      .   S
    C139   C137      1.40850      .   S
    C139   C141      1.39130      .   S
    C138   C131      1.40864      .   S
    C137   C130      1.40869      .   S
    H39    C176      1.09042      .   S
    H38    C175      1.09044      .   S
    C175   C177      1.40925      .   S
    C176   C178      1.40885      .   S
    H13    C142      1.08924      .   S
    H14    C141      1.08919  1_655   S
    C181   H42       1.08922      .   S
    C181   C180      1.39173      .   S
    C182   H43       1.08925      .   S
    C182   C179      1.39144  1_655   S
    C142   C127      1.40225      .   S
    C141   C126      1.40226      .   S
    C131   H10       1.09040      .   S
    C131   C129      1.48124      .   S
    C130   H9        1.09041      .   S
    C130   C128      1.48156      .   S
    C178   C180      1.40857      .   S
    C178   C184      1.47767      .   S
    C177   C179      1.40854      .   S
    C177   C183      1.47783      .   S
    C180   H40       1.08994      .   S
    C179   H41       1.08985  1_455   S
    C127   C129      1.37770      .   S
    C127   C125      1.50198  1_545   S
    C126   C128      1.37776      .   S
    C126   C124      1.50218  1_545   S
    C129   H8        1.08807  1_545   S
    C128   H7        1.08609  1_545   S
    H45    C186      1.08997      .   S
    H44    C185      1.09027      .   S
    C184   C186      1.40962      .   S
    C184   C194      1.40852      .   S
    C183   C185      1.40995      .   S
    C183   C193      1.40848      .   S
    C186   C188      1.39006      .   S
    C185   C187      1.38935      .   S
    O291   C124      1.24687  1_655   S
    O290   C125      1.24684      .   S
    C125   O289      1.31181      .   S
    C124   O288      1.31159      .   S
    H51    C194      1.08869      .   S
    H50    C193      1.08864      .   S
    C194   C192      1.38981      .   S
    C193   C191      1.39001      .   S
    C188   H47       1.08871      .   S
    C188   C190      1.40348      .   S
    C187   H46       1.08875      .   S
    C187   C189      1.40356      .   S
    H24    C158      1.09034      .   S
    H23    C157      1.09109      .   S
    O289   Zn32      1.93783      .   S
    O288   Zn0       1.93798  1_455   S
    H26    C160      1.09054      .   S
    H25    C159      1.08934      .   S
    C192   C190      1.40310      .   S
    C192   H49       1.08860      .   S
    C191   C189      1.40306      .   S
    C191   H48       1.08855      .   S
    C190   C196      1.48464      .   S
    C189   C195      1.48460      .   S
    C158   C160      1.38923      .   S
    C158   N281      1.35305      .   S
    C157   C159      1.39029      .   S
    C157   N280      1.34537      .   S
    C159   C161      1.40063      .   S
    C160   C162      1.39994      .   S
    H35    C168      1.11590      .   S
    H34    C167      1.09922      .   S
    H84    C239      1.09100      .   S
    H85    C240      1.08995      .   S
    H86    C241      1.08871      .   S
    H87    C242      1.08877      .   S
    C195   O302      1.28345      .   S
    C195   O300      1.28061      .   S
    C196   O303      1.28339      .   S
    C196   O301      1.28061      .   S
    Zn0    N281      2.04396      .   S
    Zn0    O301      2.00062  1_565   S
    Zn32   N280      2.04598      .   S
    Zn32   O300      2.00067  1_565   S
    C162   C168      1.50375      .   S
    C161   C167      1.50373      .   S
    C168   H33       1.10162      .   S
    C167   H31       1.10159      .   S
    C239   C241      1.38645      .   S
    C240   C242      1.38646      .   S
