# CIF file generated by openbabel 2.4.90, see http://openbabel.sf.net
data_I
_chemical_name_common ''
_cell_length_a 15.084
_cell_length_b 12.455
_cell_length_c 25.541
_cell_angle_alpha 70.801
_cell_angle_beta 81.473
_cell_angle_gamma 72.345
_space_group_name_H-M_alt 'P 1'
_space_group_name_Hall 'P 1'
loop_
    _symmetry_equiv_pos_as_xyz
    x,y,z
loop_
    _atom_site_label
    _atom_site_type_symbol
    _atom_site_fract_x
    _atom_site_fract_y
    _atom_site_fract_z
    _atom_site_occupancy
    Zn0     Zn   0.98658   0.89807   0.96433   1.000
    Zn1     Zn   0.41831   0.60344   0.53361   1.000
    Zn2     Zn   0.91833   0.60346   0.53363   1.000
    Zn3     Zn   0.01383   0.10325   0.03351   1.000
    Zn4     Zn   0.51392   0.10316   0.03352   1.000
    Zn5     Zn   0.08202   0.39811   0.46425   1.000
    Zn6     Zn   0.58200   0.39807   0.46420   1.000
    Zn7     Zn   0.48669   0.89797   0.96433   1.000
    C8      C    0.47908   0.01151   0.14696   1.000
    C9      C    0.97907   0.01152   0.14690   1.000
    C10     C    0.02136   0.99012   0.85092   1.000
    C11     C    0.52141   0.99002   0.85090   1.000
    C12     C    0.42828   0.36119   0.53683   1.000
    C13     C    0.92828   0.36123   0.53684   1.000
    C14     C    0.44180   0.51172   0.64713   1.000
    C15     C    0.94180   0.51177   0.64717   1.000
    C16     C    0.37732   0.14007   0.96110   1.000
    C17     C    0.87722   0.14017   0.96111   1.000
    C18     C    0.07206   0.64049   0.46100   1.000
    C19     C    0.57205   0.64046   0.46106   1.000
    C20     C    0.05840   0.48939   0.35080   1.000
    C21     C    0.55838   0.48935   0.35081   1.000
    C22     C    0.12296   0.86096   0.03684   1.000
    C23     C    0.62301   0.86085   0.03684   1.000
    O24     O    0.06320   0.94722   0.89787   1.000
    O25     O    0.56329   0.94700   0.89785   1.000
    O26     O    0.43870   0.99594   0.84652   1.000
    O27     O    0.93866   0.99600   0.84652   1.000
    O28     O    0.39608   0.47210   0.51322   1.000
    O29     O    0.89607   0.47214   0.51324   1.000
    O30     O    0.01176   0.30314   0.52689   1.000
    O31     O    0.51176   0.30309   0.52680   1.000
    O32     O    0.48554   0.55538   0.60022   1.000
    O33     O    0.98553   0.55538   0.60025   1.000
    O34     O    0.36016   0.50476   0.65143   1.000
    O35     O    0.86014   0.50485   0.65148   1.000
    O36     O    0.38843   0.02923   0.98473   1.000
    O37     O    0.88835   0.02932   0.98475   1.000
    O38     O    0.42700   0.19790   0.97099   1.000
    O39     O    0.92686   0.19804   0.97100   1.000
    O40     O    0.43701   0.05537   0.10006   1.000
    O41     O    0.93698   0.05539   0.10007   1.000
    O42     O    0.06202   0.00465   0.15128   1.000
    O43     O    0.56204   0.00464   0.15127   1.000
    O44     O    0.10419   0.52955   0.48466   1.000
    O45     O    0.60416   0.52952   0.48463   1.000
    O46     O    0.48866   0.69870   0.47112   1.000
    O47     O    0.98867   0.69872   0.47113   1.000
    O48     O    0.01463   0.44582   0.39774   1.000
    O49     O    0.51464   0.44568   0.39772   1.000
    O50     O    0.14015   0.49599   0.34651   1.000
    O51     O    0.64011   0.49600   0.34650   1.000
    O52     O    0.11177   0.97180   0.01318   1.000
    O53     O    0.61182   0.97169   0.01318   1.000
    O54     O    0.07338   0.80307   0.02690   1.000
    O55     O    0.57346   0.80294   0.02690   1.000
    Ts56    Ts   0.96387   0.85709   0.96631   1.000
    Ts57    Ts   0.37599   0.64427   0.53166   1.000
    Ts58    Ts   0.87600   0.64431   0.53168   1.000
    Ts59    Ts   0.03660   0.14417   0.03152   1.000
    Ts60    Ts   0.53668   0.14408   0.03153   1.000
    Ts61    Ts   0.12435   0.35726   0.46625   1.000
    Ts62    Ts   0.62433   0.35722   0.46621   1.000
    Ts63    Ts   0.46396   0.85700   0.96622   1.000
    Og64    Og   0.45899   0.99644   0.16355   1.000
    Og65    Og   0.95897   0.99645   0.16352   1.000
    Og66    Og   0.04144   0.00522   0.83433   1.000
    Og67    Og   0.54149   0.00512   0.83432   1.000
    Og68    Og   0.40773   0.33973   0.55037   1.000
    Og69    Og   0.90773   0.33976   0.55038   1.000
    Og70    Og   0.46110   0.49672   0.66373   1.000
    Og71    Og   0.96110   0.49676   0.66377   1.000
    Og72    Og   0.35279   0.16162   0.94758   1.000
    Og73    Og   0.85270   0.16170   0.94758   1.000
    Og74    Og   0.09262   0.66193   0.44749   1.000
    Og75    Og   0.59261   0.66191   0.44753   1.000
    Og76    Og   0.03908   0.50447   0.33422   1.000
    Og77    Og   0.53906   0.50444   0.33422   1.000
    Og78    Og   0.14747   0.83944   0.05036   1.000
    Og79    Og   0.64752   0.83934   0.05038   1.000
loop_
    _geom_bond_atom_site_label_1
    _geom_bond_atom_site_label_2
    _geom_bond_distance
    _geom_bond_site_symmetry_2
    _ccdc_geom_bond_type
    O53    Zn4       1.99927  1_565   S
    O53    C23       1.28056      .   S
    O52    Zn3       1.99927  1_565   S
    O52    C22       1.28060      .   S
    O55    C23       1.28336      .   S
    O55    Zn7       2.02594  1_554   S
    O54    C22       1.28342      .   S
    O54    Zn0       2.02612  1_454   S
    Zn3    O41       1.93839  1_455   S
    Zn3    O39       2.02632  1_454   S
    Zn4    O40       1.93840      .   S
    Zn4    O38       2.02610  1_554   S
    O40    C8        1.31183      .   S
    O41    C9        1.31036      .   S
    C9     O42       1.24726  1_655   S
    C8     O43       1.24695      .   S
    O51    C21       1.24689      .   S
    O50    C20       1.24693      .   S
    C20    O48       1.31238      .   S
    C21    O49       1.31199      .   S
    O49    Zn6       1.93681      .   S
    O48    Zn5       1.93752      .   S
    C18    O47       1.28395  1_455   S
    C18    O44       1.28084      .   S
    C19    O46       1.28353      .   S
    C19    O45       1.28050      .   S
    Zn6    O45       2.00250      .   S
    Zn6    O31       2.02298      .   S
    Zn5    O44       2.00218      .   S
    Zn5    O30       2.02356      .   S
    O46    Zn1       2.02413      .   S
    O47    Zn2       2.02419      .   S
    O28    Zn1       2.00107      .   S
    O28    C12       1.28059      .   S
    O29    Zn2       2.00107      .   S
    O29    C13       1.28056      .   S
    O31    C12       1.28392      .   S
    O30    C13       1.28340  1_455   S
    Zn1    O32       1.93765      .   S
    Zn2    O33       1.93769      .   S
    O32    C14       1.31188      .   S
    O33    C15       1.31190      .   S
    C14    O34       1.24684      .   S
    C15    O35       1.24684      .   S
    O27    C10       1.24687  1_655   S
    O26    C11       1.24684      .   S
    C11    O25       1.31181      .   S
    C10    O24       1.31159      .   S
    O25    Zn7       1.93783      .   S
    O24    Zn0       1.93798  1_455   S
    C16    O38       1.28345      .   S
    C16    O36       1.28061      .   S
    C17    O39       1.28339      .   S
    C17    O37       1.28061      .   S
    Zn0    O37       2.00062  1_565   S
    Zn7    O36       2.00067  1_565   S
    Zn0    Ts56      0.68132      .   S
    Zn1    Ts57      0.68158      .   S
    Zn2    Ts58      0.68161      .   S
    Zn3    Ts59      0.68129      .   S
    Zn4    Ts60      0.68129      .   S
    Zn5    Ts61      0.68163      .   S
    Zn6    Ts62      0.68162      .   S
    Zn7    Ts63      0.68199      .   S
    C8     Og64      0.50082  1_545   S
    C9     Og65      0.50120  1_545   S
    C10    Og66      0.50073  1_565   S
    C11    Og67      0.50066  1_565   S
    C12    Og68      0.49476      .   S
    C13    Og69      0.49476      .   S
    C14    Og70      0.50080      .   S
    C15    Og71      0.50082      .   S
    C16    Og72      0.49487      .   S
    C17    Og73      0.49488      .   S
    C18    Og74      0.49448      .   S
    C19    Og75      0.49473      .   S
    C20    Og76      0.50056      .   S
    C21    Og77      0.50069      .   S
    C22    Og78      0.49468      .   S
    C23    Og79      0.49487      .   S
