# CIF file generated by openbabel 2.4.90, see http://openbabel.sf.net
data_I
_chemical_name_common ''
_cell_length_a 15.084
_cell_length_b 12.455
_cell_length_c 25.541
_cell_angle_alpha 70.801
_cell_angle_beta 81.473
_cell_angle_gamma 72.345
_space_group_name_H-M_alt 'P 1'
_space_group_name_Hall 'P 1'
loop_
    _symmetry_equiv_pos_as_xyz
    x,y,z
loop_
    _atom_site_label
    _atom_site_type_symbol
    _atom_site_fract_x
    _atom_site_fract_y
    _atom_site_fract_z
    _atom_site_occupancy
    C0      C    0.47908   0.01151   0.14696   1.000
    C1      C    0.97907   0.01152   0.14690   1.000
    C2      C    0.02136   0.99012   0.85092   1.000
    C3      C    0.52141   0.99002   0.85090   1.000
    C4      C    0.42828   0.36119   0.53683   1.000
    C5      C    0.92828   0.36123   0.53684   1.000
    C6      C    0.44180   0.51172   0.64713   1.000
    C7      C    0.94180   0.51177   0.64717   1.000
    C8      C    0.37732   0.14007   0.96110   1.000
    C9      C    0.87722   0.14017   0.96111   1.000
    C10     C    0.07206   0.64049   0.46100   1.000
    C11     C    0.57205   0.64046   0.46106   1.000
    C12     C    0.05840   0.48939   0.35080   1.000
    C13     C    0.55838   0.48935   0.35081   1.000
    C14     C    0.12296   0.86096   0.03684   1.000
    C15     C    0.62301   0.86085   0.03684   1.000
