# CIF file generated by openbabel 2.4.90, see http://openbabel.sf.net
data_I
_chemical_name_common ''
_cell_length_a 15.084
_cell_length_b 12.455
_cell_length_c 25.541
_cell_angle_alpha 70.801
_cell_angle_beta 81.473
_cell_angle_gamma 72.345
_space_group_name_H-M_alt 'P 1'
_space_group_name_Hall 'P 1'
loop_
    _symmetry_equiv_pos_as_xyz
    x,y,z
loop_
    _atom_site_label
    _atom_site_type_symbol
    _atom_site_fract_x
    _atom_site_fract_y
    _atom_site_fract_z
    _atom_site_occupancy
    N0      N    0.50020   0.00080   0.49903   1.000
    N1      N    0.75032   0.50051   0.99894   1.000
    N2      N    0.64703   0.34040   0.81111   1.000
    N3      N    0.85311   0.66090   0.18688   1.000
    N4      N    0.72299   0.16062   0.68692   1.000
    N5      N    0.27742   0.84007   0.31098   1.000
    N6      N    0.00017   0.00072   0.49904   1.000
    N7      N    0.35308   0.66094   0.18686   1.000
    N8      N    0.25032   0.50050   0.99896   1.000
    N9      N    0.14707   0.34041   0.81114   1.000
    N10     N    0.77742   0.84007   0.31099   1.000
    N11     N    0.22296   0.16066   0.68692   1.000
    Zr12    Zr   0.50014   0.50068   0.49895   1.000
    O13     O    0.33882   0.66669   0.50691   1.000
    O14     O    0.66148   0.33472   0.49104   1.000
    O15     O    0.52951   0.45774   0.62026   1.000
    O16     O    0.59515   0.62851   0.43741   1.000
    O17     O    0.47069   0.54357   0.37767   1.000
    O18     O    0.40517   0.37275   0.56049   1.000
    Zr19    Zr   0.50023   0.00059   0.99894   1.000
    O20     O    0.42584   0.83455   0.99100   1.000
    O21     O    0.57471   0.16656   0.00684   1.000
    O22     O    0.56874   0.04362   0.87771   1.000
    O23     O    0.43170   0.95754   0.12018   1.000
    O24     O    0.37201   0.12850   0.93746   1.000
    O25     O    0.62833   0.87267   0.06048   1.000
    Zr26    Zr   0.00015   0.50072   0.49897   1.000
    O27     O    0.16150   0.33477   0.49106   1.000
    O28     O    0.83883   0.66674   0.50692   1.000
    O29     O    0.09515   0.62854   0.43742   1.000
    O30     O    0.90518   0.37277   0.56050   1.000
    O31     O    0.02953   0.45778   0.62029   1.000
    O32     O    0.97071   0.54359   0.37769   1.000
    Zr33    Zr   0.00016   0.00068   0.99894   1.000
    O34     O    0.92579   0.83462   0.99103   1.000
    O35     O    0.06869   0.04370   0.87771   1.000
    O36     O    0.93167   0.95759   0.12017   1.000
    O37     O    0.07465   0.16662   0.00684   1.000
    O38     O    0.12828   0.87275   0.06047   1.000
    O39     O    0.87195   0.12856   0.93745   1.000
loop_
    _geom_bond_atom_site_label_1
    _geom_bond_atom_site_label_2
    _geom_bond_distance
    _geom_bond_site_symmetry_2
    _ccdc_geom_bond_type
    Zr12   O13       2.70475      .   S
    N6     O13       5.50512  1_545   S
    Zr12   O14       2.70443      .   S
    N6     O14       5.50505  1_455   S
    Zr12   O15       3.04236      .   S
    N2     O15       5.03441      .   S
    Zr12   O16       2.47574      .   S
    N10    O16       4.59279      .   S
    Zr12   O17       3.04189      .   S
    N7     O17       5.03393      .   S
    Zr12   O18       2.47602      .   S
    N11    O18       4.59580      .   S
    Zr19   O20       2.70692  1_545   S
    N8     O20       5.50705      .   S
    Zr19   O21       2.70668  1_556   S
    N1     O21       5.50727  1_556   S
    Zr19   O22       3.03952      .   S
    N4     O22       5.03047      .   S
    Zr19   O23       3.03966  1_546   S
    N5     O23       5.03175      .   S
    Zr19   O24       2.47594      .   S
    N9     O24       4.59364      .   S
    Zr19   O25       2.47567  1_546   S
    N3     O25       4.59304      .   S
    Zr26   O27       2.70449      .   S
    N0     O27       5.50510      .   S
    Zr26   O28       2.70469  1_455   S
    N0     O28       5.50506  1_545   S
    Zr26   O29       2.47583      .   S
    N5     O29       4.59275      .   S
    Zr26   O30       2.47608  1_455   S
    N4     O30       4.59592      .   S
    Zr26   O31       3.04254      .   S
    N9     O31       5.03459      .   S
    Zr26   O32       3.04210  1_455   S
    N3     O32       5.03393      .   S
    Zr33   O34       2.70678  1_445   S
    N1     O34       5.50755      .   S
    Zr33   O35       3.03953      .   S
    N11    O35       5.03070      .   S
    Zr33   O36       3.03940  1_446   S
    N10    O36       5.03186      .   S
    Zr33   O37       2.70652  1_556   S
    N8     O37       5.50717  1_556   S
    Zr33   O38       2.47572  1_546   S
    N7     O38       4.59327      .   S
    Zr33   O39       2.47598  1_455   S
    N2     O39       4.59363      .   S
