# CIF file generated by openbabel 2.4.90, see http://openbabel.sf.net
data_I
_chemical_name_common ''
_cell_length_a 15.084
_cell_length_b 12.455
_cell_length_c 25.541
_cell_angle_alpha 70.801
_cell_angle_beta 81.473
_cell_angle_gamma 72.345
_space_group_name_H-M_alt 'P 1'
_space_group_name_Hall 'P 1'
loop_
    _symmetry_equiv_pos_as_xyz
    x,y,z
loop_
    _atom_site_label
    _atom_site_type_symbol
    _atom_site_fract_x
    _atom_site_fract_y
    _atom_site_fract_z
    _atom_site_occupancy
    Zr0     Zr   0.48669   0.89797   0.96433   1.000
    Zr1     Zr   0.98658   0.89807   0.96433   1.000
    Zr2     Zr   0.41831   0.60344   0.53361   1.000
    Zr3     Zr   0.91833   0.60346   0.53363   1.000
    Zr4     Zr   0.01383   0.10325   0.03351   1.000
    Zr5     Zr   0.51392   0.10316   0.03352   1.000
    Zr6     Zr   0.08202   0.39811   0.46425   1.000
    Zr7     Zr   0.58200   0.39807   0.46420   1.000
    N8      N    0.84937   0.66480   0.18883   1.000
    O9      O    0.68972   0.75762   0.09222   1.000
    O10     O    0.70612   0.85111   0.10609   1.000
    O11     O    0.94885   0.54338   0.30991   1.000
    N12     N    0.65079   0.33644   0.80915   1.000
    O13     O    0.81057   0.24354   0.90570   1.000
    O14     O    0.55136   0.45792   0.68803   1.000
    O15     O    0.79413   0.15006   0.89184   1.000
    N16     N    0.75032   0.50051   0.99894   1.000
    O17     O    0.85142   0.66856   0.98312   1.000
    O18     O    0.64919   0.33253   0.01474   1.000
    N19     N    0.25032   0.50050   0.99896   1.000
    O20     O    0.35146   0.66851   0.98306   1.000
    O21     O    0.14915   0.33256   0.01475   1.000
    N22     N    0.72382   0.16468   0.68887   1.000
    O23     O    0.81551   0.35124   0.60615   1.000
    O24     O    0.88536   0.25765   0.59222   1.000
    O25     O    0.62440   0.04358   0.80998   1.000
    N26     N    0.50020   0.00080   0.49903   1.000
    O27     O    0.67752   0.83276   0.51487   1.000
    O28     O    0.32286   0.16882   0.48314   1.000
    N29     N    0.15083   0.33644   0.80918   1.000
    O30     O    0.05138   0.45793   0.68806   1.000
    O31     O    0.31064   0.24349   0.90572   1.000
    O32     O    0.29419   0.15002   0.89185   1.000
    N33     N    0.77659   0.83621   0.30903   1.000
    O34     O    0.68484   0.65000   0.39172   1.000
    O35     O    0.87600   0.95777   0.18791   1.000
    O36     O    0.61504   0.74364   0.40570   1.000
    N37     N    0.00017   0.00072   0.49904   1.000
    O38     O    0.17750   0.83271   0.51486   1.000
    O39     O    0.82283   0.16876   0.48313   1.000
    N40     N    0.27660   0.83622   0.30903   1.000
    O41     O    0.11505   0.74366   0.40570   1.000
    O42     O    0.18485   0.65003   0.39174   1.000
    O43     O    0.37603   0.95774   0.18791   1.000
    N44     N    0.22379   0.16473   0.68887   1.000
    O45     O    0.31549   0.35125   0.60614   1.000
    O46     O    0.12434   0.04369   0.80998   1.000
    O47     O    0.38534   0.25765   0.59218   1.000
    N48     N    0.34934   0.66483   0.18881   1.000
    O49     O    0.18966   0.75770   0.09221   1.000
    O50     O    0.20607   0.85118   0.10608   1.000
    O51     O    0.44883   0.54335   0.30989   1.000
loop_
    _geom_bond_atom_site_label_1
    _geom_bond_atom_site_label_2
    _geom_bond_distance
    _geom_bond_site_symmetry_2
    _ccdc_geom_bond_type
    N8     O9        3.37947      .   S
    Zr0    O9        4.36675  1_556   S
    N8     O10       3.09953      .   S
    Zr5    O10       3.73384  1_545   S
    N8     O11       3.32062      .   S
    Zr6    O11       4.27795  1_455   S
    N12    O13       3.37981      .   S
    Zr4    O13       4.36770  1_454   S
    N12    O14       3.32104      .   S
    Zr2    O14       4.27874      .   S
    N12    O15       3.09990      .   S
    Zr1    O15       3.73514  1_565   S
    N16    O17       2.84024      .   S
    Zr1    O17       3.86015      .   S
    N16    O18       2.83993  1_556   S
    Zr5    O18       3.85983      .   S
    N19    O20       2.83992      .   S
    Zr0    O20       3.86062      .   S
    N19    O21       2.83998  1_556   S
    Zr4    O21       3.85988      .   S
    N22    O23       3.10315      .   S
    Zr3    O23       3.73912      .   S
    N22    O24       3.37928      .   S
    Zr6    O24       4.36526  1_455   S
    N22    O25       3.31960      .   S
    Zr0    O25       4.27784  1_565   S
    N26    O27       2.84014  1_545   S
    Zr3    O27       3.86049      .   S
    N26    O28       2.84038      .   S
    Zr6    O28       3.86083      .   S
    N29    O30       3.32119      .   S
    Zr3    O30       4.27895  1_655   S
    N29    O31       3.37988      .   S
    Zr5    O31       4.36769  1_554   S
    N29    O32       3.10007      .   S
    Zr0    O32       3.73574  1_565   S
    N33    O34       3.10055      .   S
    Zr7    O34       3.73620      .   S
    N33    O35       3.32142      .   S
    Zr4    O35       4.27923  1_445   S
    N33    O36       3.37801      .   S
    Zr2    O36       4.36393      .   S
    N37    O38       2.84013  1_545   S
    Zr2    O38       3.86044      .   S
    N37    O39       2.84043  1_455   S
    Zr7    O39       3.86089      .   S
    N40    O41       3.37810      .   S
    Zr3    O41       4.36405  1_655   S
    N40    O42       3.10059      .   S
    Zr6    O42       3.73611      .   S
    N40    O43       3.32141      .   S
    Zr5    O43       4.27918  1_545   S
    N44    O45       3.10302      .   S
    Zr2    O45       3.73885      .   S
    N44    O46       3.31977      .   S
    Zr1    O46       4.27813  1_665   S
    N44    O47       3.37960      .   S
    Zr7    O47       4.36526      .   S
    N48    O49       3.37967      .   S
    Zr1    O49       4.36711  1_656   S
    N48    O50       3.09976      .   S
    Zr4    O50       3.73433  1_545   S
    N48    O51       3.32046      .   S
    Zr7    O51       4.27736      .   S
