# CIF file generated by openbabel 2.4.90, see http://openbabel.sf.net
data_I
_chemical_name_common ''
_cell_length_a 15.084
_cell_length_b 12.455
_cell_length_c 25.541
_cell_angle_alpha 70.801
_cell_angle_beta 81.473
_cell_angle_gamma 72.345
_space_group_name_H-M_alt 'P 1'
_space_group_name_Hall 'P 1'
loop_
    _symmetry_equiv_pos_as_xyz
    x,y,z
loop_
    _atom_site_label
    _atom_site_type_symbol
    _atom_site_fract_x
    _atom_site_fract_y
    _atom_site_fract_z
    _atom_site_occupancy
    C0      C    0.48669   0.89797   0.96433   1.000
    C1      C    0.98658   0.89807   0.96433   1.000
    C2      C    0.41831   0.60344   0.53361   1.000
    C3      C    0.91833   0.60346   0.53363   1.000
    C4      C    0.01383   0.10325   0.03351   1.000
    C5      C    0.51392   0.10316   0.03352   1.000
    C6      C    0.08202   0.39811   0.46425   1.000
    C7      C    0.58200   0.39807   0.46420   1.000
    C8      C    0.20630   0.97149   0.84600   1.000
    C9      C    0.70633   0.97144   0.84608   1.000
    C10     C    0.30435   0.05478   0.76635   1.000
    C11     C    0.80437   0.05477   0.76634   1.000
    C12     C    0.06592   0.19749   0.66460   1.000
    C13     C    0.56595   0.19738   0.66465   1.000
    C14     C    0.46893   0.11369   0.74600   1.000
    C15     C    0.96888   0.11383   0.74601   1.000
    C16     C    0.37804   0.04380   0.68492   1.000
    C17     C    0.87808   0.04379   0.68490   1.000
    C18     C    0.47836   0.14255   0.61074   1.000
    C19     C    0.97838   0.14257   0.61074   1.000
    C20     C    0.24031   0.43575   0.55242   1.000
    C21     C    0.74030   0.43575   0.55243   1.000
    C22     C    0.13959   0.33760   0.62488   1.000
    C23     C    0.63960   0.33755   0.62487   1.000
    C24     C    0.35493   0.87447   0.89662   1.000
    C25     C    0.85483   0.87458   0.89660   1.000
    C26     C    0.27258   0.72542   0.89857   1.000
    C27     C    0.77248   0.72553   0.89856   1.000
    C28     C    0.40514   0.50483   0.05120   1.000
    C29     C    0.90515   0.50484   0.05119   1.000
    C30     C    0.47655   0.66530   0.04467   1.000
    C31     C    0.97654   0.66532   0.04463   1.000
    C32     C    0.34315   0.41938   0.98423   1.000
    C33     C    0.84313   0.41946   0.98410   1.000
    C34     C    0.26302   0.52372   0.93573   1.000
    C35     C    0.76292   0.52385   0.93500   1.000
    C36     C    0.11489   0.53072   0.65201   1.000
    C37     C    0.61487   0.53073   0.65198   1.000
    C38     C    0.21469   0.44744   0.73171   1.000
    C39     C    0.71466   0.44744   0.73169   1.000
    C40     C    0.49670   0.30477   0.83344   1.000
    C41     C    0.99671   0.30486   0.83349   1.000
    C42     C    0.39858   0.38828   0.75211   1.000
    C43     C    0.89858   0.38839   0.75218   1.000
    C44     C    0.24238   0.45803   0.81321   1.000
    C45     C    0.74230   0.45804   0.81318   1.000
    C46     C    0.35506   0.35887   0.88729   1.000
    C47     C    0.85495   0.35893   0.88728   1.000
    C48     C    0.23431   0.06592   0.94547   1.000
    C49     C    0.73425   0.06594   0.94546   1.000
    C50     C    0.12064   0.16447   0.87314   1.000
    C51     C    0.62062   0.16444   0.87311   1.000
    C52     C    0.24062   0.62610   0.60131   1.000
    C53     C    0.74066   0.62628   0.60139   1.000
    C54     C    0.08448   0.77493   0.59951   1.000
    C55     C    0.58455   0.77515   0.59957   1.000
    C56     C    0.18317   0.99656   0.44718   1.000
    C57     C    0.68317   0.99651   0.44713   1.000
    C58     C    0.33171   0.83621   0.45355   1.000
    C59     C    0.83169   0.83614   0.45352   1.000
    C60     C    0.04476   0.08127   0.51447   1.000
    C61     C    0.54481   0.08137   0.51444   1.000
    C62     C    0.49229   0.97670   0.56240   1.000
    C63     C    0.99226   0.97656   0.56248   1.000
    C64     C    0.29409   0.03023   0.15182   1.000
    C65     C    0.79408   0.03022   0.15183   1.000
    C66     C    0.19607   0.94680   0.23154   1.000
    C67     C    0.69607   0.94679   0.23155   1.000
    C68     C    0.43445   0.80427   0.33325   1.000
    C69     C    0.93445   0.80428   0.33326   1.000
    C70     C    0.03149   0.88790   0.25191   1.000
    C71     C    0.53150   0.88789   0.25190   1.000
    C72     C    0.12232   0.95779   0.31298   1.000
    C73     C    0.62232   0.95779   0.31299   1.000
    C74     C    0.02201   0.85907   0.38717   1.000
    C75     C    0.52201   0.85905   0.38717   1.000
    C76     C    0.26007   0.56592   0.44552   1.000
    C77     C    0.76006   0.56589   0.44552   1.000
    C78     C    0.36079   0.66406   0.37307   1.000
    C79     C    0.86079   0.66405   0.37307   1.000
    C80     C    0.14591   0.12626   0.10110   1.000
    C81     C    0.64606   0.12616   0.10110   1.000
    C82     C    0.22828   0.27520   0.09931   1.000
    C83     C    0.72842   0.27511   0.09928   1.000
    C84     C    0.09526   0.49653   0.94680   1.000
    C85     C    0.59522   0.49652   0.94691   1.000
    C86     C    0.02390   0.33611   0.95328   1.000
    C87     C    0.52389   0.33607   0.95331   1.000
    C88     C    0.15751   0.58155   0.01388   1.000
    C89     C    0.65752   0.58150   0.01392   1.000
    C90     C    0.23763   0.47709   0.06237   1.000
    C91     C    0.73772   0.47702   0.06236   1.000
    C92     C    0.38522   0.47071   0.34601   1.000
    C93     C    0.88525   0.47070   0.34603   1.000
    C94     C    0.28540   0.55404   0.26630   1.000
    C95     C    0.78543   0.55399   0.26630   1.000
    C96     C    0.00338   0.69668   0.16450   1.000
    C97     C    0.50337   0.69670   0.16455   1.000
    C98     C    0.10154   0.61309   0.24587   1.000
    C99     C    0.60153   0.61308   0.24586   1.000
    C100    C    0.25787   0.54324   0.18483   1.000
    C101    C    0.75790   0.54318   0.18486   1.000
    C102    C    0.14524   0.64221   0.11072   1.000
    C103    C    0.64528   0.64212   0.11070   1.000
    C104    C    0.26588   0.93527   0.05247   1.000
    C105    C    0.76590   0.93521   0.05248   1.000
    C106    C    0.37945   0.83691   0.12486   1.000
    C107    C    0.87946   0.83687   0.12489   1.000
    C108    C    0.25978   0.37524   0.39667   1.000
    C109    C    0.75972   0.37511   0.39662   1.000
    C110    C    0.41594   0.22646   0.39859   1.000
    C111    C    0.91587   0.22630   0.39854   1.000
    C112    C    0.31717   0.00513   0.55099   1.000
    C113    C    0.81717   0.00514   0.55102   1.000
    C114    C    0.16860   0.16545   0.54450   1.000
    C115    C    0.66861   0.16547   0.54450   1.000
    C116    C    0.45563   0.92024   0.48371   1.000
    C117    C    0.95559   0.92017   0.48370   1.000
    C118    C    0.00811   0.02485   0.43571   1.000
    C119    C    0.50814   0.02493   0.43570   1.000
    C120    C    0.02136   0.99012   0.85092   1.000
    C121    C    0.52141   0.99002   0.85090   1.000
    C122    C    0.08161   0.03543   0.80116   1.000
    C123    C    0.58165   0.03533   0.80115   1.000
    C124    C    0.17670   0.00000   0.80580   1.000
    C125    C    0.67674   0.00000   0.80579   1.000
    C126    C    0.23174   0.06520   0.76046   1.000
    C127    C    0.73177   0.06516   0.76045   1.000
    C128    C    0.19314   0.13054   0.70866   1.000
    C129    C    0.69318   0.13047   0.70865   1.000
    C130    C    0.09772   0.14667   0.70417   1.000
    C131    C    0.59775   0.14657   0.70416   1.000
    C132    C    0.04293   0.09951   0.74959   1.000
    C133    C    0.54297   0.09940   0.74958   1.000
    C134    C    0.25137   0.18417   0.66147   1.000
    C135    C    0.75139   0.18413   0.66146   1.000
    C136    C    0.34751   0.12983   0.65590   1.000
    C137    C    0.84754   0.12981   0.65591   1.000
    C138    C    0.40402   0.18469   0.61431   1.000
    C139    C    0.90404   0.18470   0.61430   1.000
    C140    C    0.36662   0.29682   0.57745   1.000
    C141    C    0.86663   0.29683   0.57745   1.000
    C142    C    0.27047   0.34973   0.58138   1.000
    C143    C    0.77048   0.34972   0.58138   1.000
    C144    C    0.21363   0.29331   0.62210   1.000
    C145    C    0.71364   0.29327   0.62211   1.000
    C146    C    0.42828   0.36119   0.53683   1.000
    C147    C    0.92828   0.36123   0.53684   1.000
    C148    C    0.36171   0.79193   0.93039   1.000
    C149    C    0.86163   0.79202   0.93030   1.000
    C150    C    0.31804   0.70752   0.93160   1.000
    C151    C    0.81797   0.70761   0.93164   1.000
    C152    C    0.33364   0.60047   0.97458   1.000
    C153    C    0.83359   0.60054   0.97455   1.000
    C154    C    0.39100   0.58558   0.01635   1.000
    C155    C    0.89099   0.58562   0.01631   1.000
    C156    C    0.43150   0.67390   0.01309   1.000
    C157    C    0.93148   0.67394   0.01306   1.000
    C158    C    0.29018   0.50540   0.97632   1.000
    C159    C    0.79014   0.50547   0.97628   1.000
    C160    C    0.44180   0.51172   0.64713   1.000
    C161    C    0.94180   0.51177   0.64717   1.000
    C162    C    0.49969   0.46671   0.69692   1.000
    C163    C    0.99969   0.46676   0.69696   1.000
    C164    C    0.08871   0.48355   0.69232   1.000
    C165    C    0.58870   0.48353   0.69228   1.000
    C166    C    0.14433   0.43705   0.73760   1.000
    C167    C    0.64430   0.43703   0.73760   1.000
    C168    C    0.11252   0.37170   0.78945   1.000
    C169    C    0.61249   0.37165   0.78942   1.000
    C170    C    0.02288   0.35565   0.79398   1.000
    C171    C    0.52286   0.35558   0.79393   1.000
    C172    C    0.46724   0.40267   0.74850   1.000
    C173    C    0.96724   0.40275   0.74857   1.000
    C174    C    0.17402   0.31787   0.83661   1.000
    C175    C    0.67398   0.31785   0.83658   1.000
    C176    C    0.24032   0.37198   0.84216   1.000
    C177    C    0.74025   0.37198   0.84210   1.000
    C178    C    0.30351   0.31689   0.88372   1.000
    C179    C    0.80342   0.31693   0.88371   1.000
    C180    C    0.30373   0.20472   0.92054   1.000
    C181    C    0.80365   0.20477   0.92053   1.000
    C182    C    0.23594   0.15200   0.91658   1.000
    C183    C    0.73589   0.15202   0.91656   1.000
    C184    C    0.17121   0.20864   0.87589   1.000
    C185    C    0.67117   0.20863   0.87587   1.000
    C186    C    0.37732   0.14007   0.96110   1.000
    C187    C    0.87722   0.14017   0.96111   1.000
    C188    C    0.22295   0.70878   0.56763   1.000
    C189    C    0.72299   0.70891   0.56768   1.000
    C190    C    0.13760   0.79310   0.56647   1.000
    C191    C    0.63765   0.79325   0.56651   1.000
    C192    C    0.12110   0.90035   0.52367   1.000
    C193    C    0.62113   0.90044   0.52367   1.000
    C194    C    0.19200   0.91560   0.48196   1.000
    C195    C    0.69201   0.91561   0.48194   1.000
    C196    C    0.27511   0.82735   0.48511   1.000
    C197    C    0.77511   0.82734   0.48510   1.000
    C198    C    0.03090   0.99537   0.52199   1.000
    C199    C    0.53093   0.99547   0.52198   1.000
    C200    C    0.47908   0.01151   0.14696   1.000
    C201    C    0.97907   0.01152   0.14690   1.000
    C202    C    0.41879   0.96631   0.19674   1.000
    C203    C    0.91878   0.96631   0.19675   1.000
    C204    C    0.32370   0.98302   0.19211   1.000
    C205    C    0.82369   0.98301   0.19212   1.000
    C206    C    0.26867   0.93644   0.23740   1.000
    C207    C    0.76866   0.93644   0.23745   1.000
    C208    C    0.30724   0.87112   0.28925   1.000
    C209    C    0.80724   0.87112   0.28926   1.000
    C210    C    0.40266   0.85506   0.29374   1.000
    C211    C    0.90266   0.85506   0.29375   1.000
    C212    C    0.45745   0.90222   0.24832   1.000
    C213    C    0.95745   0.90223   0.24832   1.000
    C214    C    0.24902   0.81748   0.33645   1.000
    C215    C    0.74901   0.81747   0.33646   1.000
    C216    C    0.15286   0.87178   0.34198   1.000
    C217    C    0.65286   0.87177   0.34199   1.000
    C218    C    0.09635   0.81694   0.38360   1.000
    C219    C    0.59635   0.81692   0.38360   1.000
    C220    C    0.13375   0.70483   0.42048   1.000
    C221    C    0.63374   0.70481   0.42048   1.000
    C222    C    0.22990   0.65193   0.41655   1.000
    C223    C    0.72989   0.65190   0.41655   1.000
    C224    C    0.28674   0.70834   0.37581   1.000
    C225    C    0.78674   0.70832   0.37581   1.000
    C226    C    0.07206   0.64049   0.46100   1.000
    C227    C    0.57205   0.64046   0.46106   1.000
    C228    C    0.13906   0.20892   0.06743   1.000
    C229    C    0.63917   0.20884   0.06741   1.000
    C230    C    0.18270   0.29330   0.06626   1.000
    C231    C    0.68279   0.29323   0.06625   1.000
    C232    C    0.16701   0.40049   0.02343   1.000
    C233    C    0.66705   0.40045   0.02343   1.000
    C234    C    0.10948   0.41564   0.98169   1.000
    C235    C    0.60948   0.41561   0.98171   1.000
    C236    C    0.06903   0.32734   0.98485   1.000
    C237    C    0.56905   0.32729   0.98487   1.000
    C238    C    0.21046   0.49551   0.02177   1.000
    C239    C    0.71049   0.49548   0.02177   1.000
    C240    C    0.05840   0.48939   0.35080   1.000
    C241    C    0.55838   0.48935   0.35081   1.000
    C242    C    0.00045   0.53463   0.30106   1.000
    C243    C    0.50044   0.53462   0.30105   1.000
    C244    C    0.41139   0.51788   0.30570   1.000
    C245    C    0.91142   0.51787   0.30572   1.000
    C246    C    0.35576   0.56444   0.26039   1.000
    C247    C    0.85579   0.56440   0.26040   1.000
    C248    C    0.38760   0.62975   0.20850   1.000
    C249    C    0.88762   0.62972   0.20859   1.000
    C250    C    0.47721   0.64588   0.20406   1.000
    C251    C    0.97722   0.64586   0.20408   1.000
    C252    C    0.03288   0.59871   0.24947   1.000
    C253    C    0.53287   0.59870   0.24946   1.000
    C254    C    0.32613   0.68349   0.16141   1.000
    C255    C    0.82615   0.68345   0.16143   1.000
    C256    C    0.25990   0.62929   0.15586   1.000
    C257    C    0.75992   0.62923   0.15589   1.000
    C258    C    0.19675   0.68427   0.11428   1.000
    C259    C    0.69678   0.68419   0.11430   1.000
    C260    C    0.19651   0.79641   0.07740   1.000
    C261    C    0.69654   0.79633   0.07745   1.000
    C262    C    0.26424   0.84922   0.08139   1.000
    C263    C    0.76426   0.84916   0.08140   1.000
    C264    C    0.32893   0.79269   0.12210   1.000
    C265    C    0.82894   0.79265   0.12212   1.000
    C266    C    0.12296   0.86096   0.03684   1.000
    C267    C    0.62301   0.86085   0.03684   1.000
    C268    C    0.27743   0.29263   0.43000   1.000
    C269    C    0.77738   0.29253   0.43030   1.000
    C270    C    0.36280   0.20834   0.43162   1.000
    C271    C    0.86275   0.20822   0.43159   1.000
    C272    C    0.37929   0.10117   0.47447   1.000
    C273    C    0.87925   0.10110   0.47447   1.000
    C274    C    0.30836   0.08602   0.51610   1.000
    C275    C    0.80834   0.08600   0.51618   1.000
    C276    C    0.22523   0.17425   0.51295   1.000
    C277    C    0.72522   0.17424   0.51296   1.000
    C278    C    0.46949   0.00614   0.47618   1.000
    C279    C    0.96946   0.00606   0.47619   1.000
    C280    C    0.41851   0.77508   0.97000   1.000
    C281    C    0.91845   0.77515   0.97028   1.000
    C282    C    0.29134   0.72594   0.52776   1.000
    C283    C    0.79136   0.72600   0.52778   1.000
    C284    C    0.08212   0.22600   0.02755   1.000
    C285    C    0.58220   0.22593   0.02756   1.000
    C286    C    0.20900   0.27556   0.47025   1.000
    C287    C    0.70898   0.27551   0.47024   1.000
    C288    C    0.06320   0.94722   0.89787   1.000
    C289    C    0.56329   0.94700   0.89785   1.000
    C290    C    0.43870   0.99594   0.84652   1.000
    C291    C    0.93866   0.99600   0.84652   1.000
    C292    C    0.39608   0.47210   0.51322   1.000
    C293    C    0.89607   0.47214   0.51324   1.000
    C294    C    0.01176   0.30314   0.52689   1.000
    C295    C    0.51176   0.30309   0.52680   1.000
    C296    C    0.48554   0.55538   0.60022   1.000
    C297    C    0.98553   0.55538   0.60025   1.000
    C298    C    0.36016   0.50476   0.65143   1.000
    C299    C    0.86014   0.50485   0.65148   1.000
    C300    C    0.38843   0.02923   0.98473   1.000
    C301    C    0.88835   0.02932   0.98475   1.000
    C302    C    0.42700   0.19790   0.97099   1.000
    C303    C    0.92686   0.19804   0.97100   1.000
    C304    C    0.43701   0.05537   0.10006   1.000
    C305    C    0.93698   0.05539   0.10007   1.000
    C306    C    0.06202   0.00465   0.15128   1.000
    C307    C    0.56204   0.00464   0.15127   1.000
    C308    C    0.10419   0.52955   0.48466   1.000
    C309    C    0.60416   0.52952   0.48463   1.000
    C310    C    0.48866   0.69870   0.47112   1.000
    C311    C    0.98867   0.69872   0.47113   1.000
    C312    C    0.01463   0.44582   0.39774   1.000
    C313    C    0.51464   0.44568   0.39772   1.000
    C314    C    0.14015   0.49599   0.34651   1.000
    C315    C    0.64011   0.49600   0.34650   1.000
    C316    C    0.11177   0.97180   0.01318   1.000
    C317    C    0.61182   0.97169   0.01318   1.000
    C318    C    0.07338   0.80307   0.02690   1.000
    C319    C    0.57346   0.80294   0.02690   1.000
    O320    O    0.91123   0.62978   0.01469   1.000
    O321    O    0.95401   0.66963   0.02885   1.000
    O322    O    0.92497   0.72454   0.99167   1.000
    O323    O    0.41125   0.62974   0.01472   1.000
    O324    O    0.45403   0.66960   0.02888   1.000
    O325    O    0.42501   0.72449   0.99155   1.000
    O326    O    0.56287   0.03743   0.02335   1.000
    O327    O    0.61741   0.91627   0.02501   1.000
    O328    O    0.06280   0.03753   0.02334   1.000
    O329    O    0.11736   0.91638   0.02501   1.000
    O330    O    0.18398   0.53853   0.01783   1.000
    O331    O    0.68400   0.53849   0.01784   1.000
    O332    O    0.89807   0.54523   0.03375   1.000
    O333    O    0.86229   0.59308   0.99543   1.000
    O334    O    0.39807   0.54520   0.03377   1.000
    O335    O    0.36232   0.59302   0.99547   1.000
    O336    O    0.18873   0.44800   0.02260   1.000
    O337    O    0.22404   0.48630   0.04207   1.000
    O338    O    0.25032   0.50046   0.99904   1.000
    O339    O    0.68877   0.44796   0.02260   1.000
    O340    O    0.72410   0.48625   0.04207   1.000
    O341    O    0.75031   0.50048   0.99903   1.000
    O342    O    0.17485   0.34689   0.04485   1.000
    O343    O    0.13824   0.40806   0.00256   1.000
    O344    O    0.67492   0.34684   0.04484   1.000
    O345    O    0.63826   0.40803   0.00257   1.000
    O346    O    0.59823   0.83189   0.03187   1.000
    O347    O    0.53008   0.85045   0.99562   1.000
    O348    O    0.09817   0.83201   0.03187   1.000
    O349    O    0.02998   0.85057   0.99562   1.000
    O350    O    0.04798   0.16463   0.03053   1.000
    O351    O    0.11059   0.21746   0.04749   1.000
    O352    O    0.07558   0.27667   0.00620   1.000
    O353    O    0.54806   0.16455   0.03054   1.000
    O354    O    0.61068   0.21738   0.04748   1.000
    O355    O    0.57562   0.27661   0.00622   1.000
    O356    O    0.97541   0.07932   0.06679   1.000
    O357    O    0.97034   0.15064   0.00226   1.000
    O358    O    0.47546   0.07927   0.06679   1.000
    O359    O    0.47046   0.15053   0.00226   1.000
    O360    O    0.15973   0.82868   0.05712   1.000
    O361    O    0.65977   0.82859   0.05715   1.000
    O362    O    0.26506   0.89224   0.06693   1.000
    O363    O    0.76508   0.89218   0.06694   1.000
    O364    O    0.66098   0.25103   0.06683   1.000
    O365    O    0.70561   0.28417   0.08277   1.000
    O366    O    0.16088   0.25111   0.06685   1.000
    O367    O    0.20549   0.28425   0.08279   1.000
    O368    O    0.64261   0.16750   0.08425   1.000
    O369    O    0.14248   0.16759   0.08427   1.000
    O370    O    0.23037   0.82281   0.07940   1.000
    O371    O    0.19663   0.74034   0.09584   1.000
    O372    O    0.73040   0.82274   0.07943   1.000
    O373    O    0.69666   0.74026   0.09588   1.000
    O374    O    0.29658   0.82095   0.10175   1.000
    O375    O    0.79660   0.82090   0.10176   1.000
    O376    O    0.45804   0.03344   0.12351   1.000
    O377    O    0.95802   0.03345   0.12349   1.000
    O378    O    0.67103   0.66316   0.11250   1.000
    O379    O    0.17100   0.66324   0.11250   1.000
    O380    O    0.22832   0.65678   0.13507   1.000
    O381    O    0.72835   0.65671   0.13510   1.000
    O382    O    0.35419   0.81480   0.12348   1.000
    O383    O    0.32753   0.73809   0.14176   1.000
    O384    O    0.85420   0.81476   0.12351   1.000
    O385    O    0.82754   0.73805   0.14178   1.000
    O386    O    0.02054   0.00809   0.14909   1.000
    O387    O    0.94892   0.98892   0.17183   1.000
    O388    O    0.52056   0.00807   0.14911   1.000
    O389    O    0.44894   0.98891   0.17185   1.000
    O390    O    0.30890   0.00662   0.17197   1.000
    O391    O    0.80889   0.00661   0.17198   1.000
    O392    O    0.29301   0.65639   0.15863   1.000
    O393    O    0.25888   0.58626   0.17034   1.000
    O394    O    0.79303   0.65634   0.15866   1.000
    O395    O    0.75891   0.58620   0.17037   1.000
    O396    O    0.35686   0.65662   0.18496   1.000
    O397    O    0.85688   0.65659   0.18501   1.000
    O398    O    0.99030   0.67127   0.18429   1.000
    O399    O    0.49029   0.67129   0.18431   1.000
    O400    O    0.37125   0.97466   0.19443   1.000
    O401    O    0.29619   0.95973   0.21476   1.000
    O402    O    0.87124   0.97466   0.19444   1.000
    O403    O    0.79618   0.95972   0.21479   1.000
    O404    O    0.43812   0.93426   0.22253   1.000
    O405    O    0.93811   0.93427   0.22254   1.000
    O406    O    0.43241   0.63781   0.20628   1.000
    O407    O    0.50504   0.62229   0.22676   1.000
    O408    O    0.93242   0.63779   0.20634   1.000
    O409    O    0.00505   0.62229   0.22678   1.000
    O410    O    0.37168   0.59710   0.23445   1.000
    O411    O    0.87170   0.59706   0.23450   1.000
    O412    O    0.23237   0.94162   0.23447   1.000
    O413    O    0.73237   0.94161   0.23450   1.000
    O414    O    0.28796   0.90378   0.26333   1.000
    O415    O    0.78795   0.90378   0.26336   1.000
    O416    O    0.56720   0.60589   0.24766   1.000
    O417    O    0.06721   0.60590   0.24767   1.000
    O418    O    0.49448   0.89506   0.25011   1.000
    O419    O    0.43006   0.87864   0.27103   1.000
    O420    O    0.99447   0.89506   0.25012   1.000
    O421    O    0.93005   0.87864   0.27104   1.000
    O422    O    0.51665   0.56666   0.27526   1.000
    O423    O    0.01667   0.56667   0.27527   1.000
    O424    O    0.32058   0.55924   0.26334   1.000
    O425    O    0.38358   0.54116   0.28305   1.000
    O426    O    0.82061   0.55920   0.26335   1.000
    O427    O    0.88360   0.54113   0.28306   1.000
    O428    O    0.35495   0.86309   0.29150   1.000
    O429    O    0.27813   0.84430   0.31285   1.000
    O430    O    0.85495   0.86309   0.29151   1.000
    O431    O    0.77813   0.84429   0.31286   1.000
    O432    O    0.41856   0.82967   0.31350   1.000
    O433    O    0.91855   0.82967   0.31351   1.000
    O434    O    0.45591   0.52625   0.30338   1.000
    O435    O    0.52941   0.51199   0.32593   1.000
    O436    O    0.95594   0.52625   0.30339   1.000
    O437    O    0.02942   0.51201   0.32593   1.000
    O438    O    0.39831   0.49429   0.32586   1.000
    O439    O    0.89833   0.49428   0.32588   1.000
    O440    O    0.13759   0.91478   0.32748   1.000
    O441    O    0.63759   0.91478   0.32749   1.000
    O442    O    0.20094   0.84463   0.33921   1.000
    O443    O    0.26788   0.76291   0.35613   1.000
    O444    O    0.70094   0.84462   0.33922   1.000
    O445    O    0.76788   0.76290   0.35614   1.000
    O446    O    0.12461   0.84436   0.36279   1.000
    O447    O    0.62461   0.84435   0.36280   1.000
    O448    O    0.59924   0.49268   0.34866   1.000
    O449    O    0.09927   0.49269   0.34866   1.000
    O450    O    0.03651   0.46761   0.37427   1.000
    O451    O    0.53651   0.46752   0.37427   1.000
    O452    O    0.82377   0.68619   0.37444   1.000
    O453    O    0.32377   0.68620   0.37444   1.000
    O454    O    0.75832   0.68011   0.39618   1.000
    O455    O    0.25832   0.68013   0.39618   1.000
    O456    O    0.55918   0.83799   0.38539   1.000
    O457    O    0.61505   0.76086   0.40204   1.000
    O458    O    0.05918   0.83800   0.38539   1.000
    O459    O    0.11505   0.76088   0.40204   1.000
    O460    O    0.76855   0.33382   0.41346   1.000
    O461    O    0.26860   0.33394   0.41334   1.000
    O462    O    0.54832   0.42188   0.43096   1.000
    O463    O    0.04833   0.42197   0.43100   1.000
    O464    O    0.88931   0.21726   0.41507   1.000
    O465    O    0.38937   0.21740   0.41511   1.000
    O466    O    0.68182   0.67836   0.41852   1.000
    O467    O    0.74498   0.60890   0.43104   1.000
    O468    O    0.18183   0.67838   0.41852   1.000
    O469    O    0.24499   0.60892   0.43104   1.000
    O470    O    0.60289   0.67263   0.44077   1.000
    O471    O    0.10290   0.67266   0.44074   1.000
    O472    O    0.32012   0.25049   0.43081   1.000
    O473    O    0.24321   0.28410   0.45012   1.000
    O474    O    0.82007   0.25038   0.43095   1.000
    O475    O    0.74318   0.28402   0.45027   1.000
    O476    O    0.87100   0.15466   0.45303   1.000
    O477    O    0.37104   0.15475   0.45305   1.000
    O478    O    0.48882   0.01553   0.45594   1.000
    O479    O    0.98878   0.01546   0.45595   1.000
    O480    O    0.68759   0.95606   0.46454   1.000
    O481    O    0.18759   0.95608   0.46457   1.000
    O482    O    0.80340   0.83174   0.46931   1.000
    O483    O    0.30341   0.83178   0.46933   1.000
    O484    O    0.03036   0.66960   0.46607   1.000
    O485    O    0.08812   0.58502   0.47283   1.000
    O486    O    0.53035   0.66958   0.46609   1.000
    O487    O    0.58810   0.58499   0.47285   1.000
    O488    O    0.64549   0.33679   0.46722   1.000
    O489    O    0.59308   0.46379   0.47442   1.000
    O490    O    0.54688   0.35058   0.49550   1.000
    O491    O    0.14551   0.33684   0.46725   1.000
    O492    O    0.09310   0.46383   0.47446   1.000
    O493    O    0.04689   0.35063   0.49557   1.000
    O494    O    0.71710   0.22487   0.49160   1.000
    O495    O    0.21711   0.22491   0.49160   1.000
    O496    O    0.45349   0.65107   0.50237   1.000
    O497    O    0.95350   0.65109   0.50238   1.000
    O498    O    0.42439   0.05366   0.47533   1.000
    O499    O    0.34382   0.09359   0.49529   1.000
    O500    O    0.92435   0.05358   0.47533   1.000
    O501    O    0.84380   0.09355   0.49533   1.000
    O502    O    0.46256   0.96319   0.47995   1.000
    O503    O    0.50021   0.00081   0.49908   1.000
    O504    O    0.96252   0.96312   0.47995   1.000
    O505    O    0.00018   0.00072   0.49909   1.000
    O506    O    0.73356   0.87147   0.48352   1.000
    O507    O    0.65657   0.90802   0.50280   1.000
    O508    O    0.23355   0.87147   0.48354   1.000
    O509    O    0.15655   0.90797   0.50282   1.000
    O510    O    0.78323   0.77667   0.50644   1.000
    O511    O    0.28323   0.77665   0.50643   1.000
    O512    O    0.26679   0.13013   0.51453   1.000
    O513    O    0.19691   0.16985   0.52873   1.000
    O514    O    0.76678   0.13012   0.51457   1.000
    O515    O    0.69691   0.16985   0.52873   1.000
    O516    O    0.40720   0.53777   0.52342   1.000
    O517    O    0.41218   0.41665   0.52502   1.000
    O518    O    0.90720   0.53780   0.52344   1.000
    O519    O    0.91218   0.41668   0.52504   1.000
    O520    O    0.53787   0.03842   0.51821   1.000
    O521    O    0.03783   0.03832   0.51823   1.000
    O522    O    0.31277   0.04558   0.53355   1.000
    O523    O    0.81276   0.04557   0.53360   1.000
    O524    O    0.57603   0.94796   0.52282   1.000
    O525    O    0.51161   0.98609   0.54219   1.000
    O526    O    0.07600   0.94786   0.52283   1.000
    O527    O    0.01158   0.98596   0.54224   1.000
    O528    O    0.12935   0.84672   0.54507   1.000
    O529    O    0.62939   0.84685   0.54509   1.000
    O530    O    0.47002   0.33214   0.53182   1.000
    O531    O    0.97002   0.33218   0.53187   1.000
    O532    O    0.35483   0.66469   0.53068   1.000
    O533    O    0.25715   0.71736   0.54770   1.000
    O534    O    0.85484   0.66473   0.53070   1.000
    O535    O    0.75717   0.71745   0.54773   1.000
    O536    O    0.45193   0.57941   0.56692   1.000
    O537    O    0.95193   0.57942   0.56694   1.000
    O538    O    0.39745   0.32900   0.55714   1.000
    O539    O    0.89746   0.32903   0.55715   1.000
    O540    O    0.25539   0.39274   0.56690   1.000
    O541    O    0.75539   0.39273   0.56690   1.000
    O542    O    0.18027   0.75094   0.56705   1.000
    O543    O    0.11104   0.78402   0.58299   1.000
    O544    O    0.68032   0.75108   0.56710   1.000
    O545    O    0.61110   0.78420   0.58304   1.000
    O546    O    0.23178   0.66744   0.58447   1.000
    O547    O    0.73183   0.66759   0.58454   1.000
    O548    O    0.81855   0.32327   0.57942   1.000
    O549    O    0.88534   0.24077   0.59588   1.000
    O550    O    0.31855   0.32327   0.57942   1.000
    O551    O    0.38532   0.24075   0.59588   1.000
    O552    O    0.24205   0.32152   0.60174   1.000
    O553    O    0.74206   0.32150   0.60175   1.000
    O554    O    0.46367   0.53355   0.62368   1.000
    O555    O    0.96367   0.53357   0.62371   1.000
    O556    O    0.44119   0.16362   0.61253   1.000
    O557    O    0.94121   0.16364   0.61252   1.000
    O558    O    0.87579   0.15726   0.63511   1.000
    O559    O    0.37577   0.15726   0.63511   1.000
    O560    O    0.17661   0.31546   0.62349   1.000
    O561    O    0.23250   0.23874   0.64179   1.000
    O562    O    0.67662   0.31541   0.62349   1.000
    O563    O    0.73252   0.23870   0.64179   1.000
    O564    O    0.40098   0.50824   0.64928   1.000
    O565    O    0.47075   0.48922   0.67203   1.000
    O566    O    0.90097   0.50831   0.64933   1.000
    O567    O    0.97075   0.48926   0.67207   1.000
    O568    O    0.60179   0.50713   0.67213   1.000
    O569    O    0.10180   0.50714   0.67217   1.000
    O570    O    0.29944   0.15700   0.65869   1.000
    O571    O    0.36278   0.08681   0.67041   1.000
    O572    O    0.79946   0.15697   0.65869   1.000
    O573    O    0.86281   0.08680   0.67041   1.000
    O574    O    0.72228   0.15730   0.68506   1.000
    O575    O    0.22226   0.15735   0.68506   1.000
    O576    O    0.08182   0.17208   0.68438   1.000
    O577    O    0.58185   0.17198   0.68440   1.000
    O578    O    0.54419   0.47512   0.69460   1.000
    O579    O    0.61650   0.46028   0.71494   1.000
    O580    O    0.04420   0.47515   0.69464   1.000
    O581    O    0.11652   0.46030   0.71496   1.000
    O582    O    0.48346   0.43469   0.72271   1.000
    O583    O    0.98347   0.43475   0.72277   1.000
    O584    O    0.64546   0.13852   0.70640   1.000
    O585    O    0.57036   0.12299   0.72687   1.000
    O586    O    0.14543   0.13860   0.70642   1.000
    O587    O    0.07032   0.12309   0.72688   1.000
    O588    O    0.71247   0.09781   0.73455   1.000
    O589    O    0.21244   0.09787   0.73456   1.000
    O590    O    0.67948   0.44224   0.73464   1.000
    O591    O    0.17951   0.44224   0.73466   1.000
    O592    O    0.12842   0.40437   0.76353   1.000
    O593    O    0.62840   0.40434   0.76351   1.000
    O594    O    0.50595   0.10654   0.74779   1.000
    O595    O    0.00590   0.10667   0.74780   1.000
    O596    O    0.43291   0.39548   0.75031   1.000
    O597    O    0.49505   0.37912   0.77121   1.000
    O598    O    0.93291   0.39557   0.75038   1.000
    O599    O    0.99506   0.37920   0.77128   1.000
    O600    O    0.56231   0.06737   0.77537   1.000
    O601    O    0.06227   0.06747   0.77538   1.000
    O602    O    0.76807   0.05996   0.76340   1.000
    O603    O    0.70425   0.03258   0.78312   1.000
    O604    O    0.26804   0.05999   0.76341   1.000
    O605    O    0.20422   0.03260   0.78313   1.000
    O606    O    0.56768   0.36362   0.79168   1.000
    O607    O    0.64324   0.34475   0.81300   1.000
    O608    O    0.06770   0.36367   0.79171   1.000
    O609    O    0.14327   0.34478   0.81303   1.000
    O610    O    0.50978   0.33017   0.81369   1.000
    O611    O    0.00979   0.33026   0.81373   1.000
    O612    O    0.62920   0.01767   0.80347   1.000
    O613    O    0.55153   0.01268   0.82603   1.000
    O614    O    0.12915   0.01772   0.80348   1.000
    O615    O    0.05148   0.01278   0.82604   1.000
    O616    O    0.69154   0.98572   0.82594   1.000
    O617    O    0.19150   0.98574   0.82590   1.000
    O618    O    0.74128   0.41501   0.82764   1.000
    O619    O    0.24135   0.41501   0.82769   1.000
    O620    O    0.70712   0.34492   0.83934   1.000
    O621    O    0.67257   0.26324   0.85623   1.000
    O622    O    0.20717   0.34492   0.83938   1.000
    O623    O    0.17262   0.26326   0.85625   1.000
    O624    O    0.77184   0.34445   0.86290   1.000
    O625    O    0.27191   0.34443   0.86294   1.000
    O626    O    0.98001   0.99306   0.84872   1.000
    O627    O    0.48005   0.99298   0.84871   1.000
    O628    O    0.54235   0.96851   0.87438   1.000
    O629    O    0.04228   0.96867   0.87440   1.000
    O630    O    0.64589   0.18654   0.87449   1.000
    O631    O    0.14593   0.18656   0.87451   1.000
    O632    O    0.70353   0.18032   0.89622   1.000
    O633    O    0.20358   0.18032   0.89623   1.000
    O634    O    0.82919   0.33793   0.88550   1.000
    O635    O    0.80354   0.26085   0.90212   1.000
    O636    O    0.32928   0.33788   0.88551   1.000
    O637    O    0.30362   0.26080   0.90213   1.000
    O638    O    0.85823   0.83330   0.91345   1.000
    O639    O    0.35832   0.83320   0.91351   1.000
    O640    O    0.52499   0.92248   0.93109   1.000
    O641    O    0.02489   0.92265   0.93110   1.000
    O642    O    0.79523   0.71657   0.91510   1.000
    O643    O    0.29531   0.71647   0.91509   1.000
    O644    O    0.76977   0.17839   0.91855   1.000
    O645    O    0.73507   0.10898   0.93101   1.000
    O646    O    0.26984   0.17836   0.91856   1.000
    O647    O    0.23513   0.10896   0.93103   1.000
    O648    O    0.84044   0.17247   0.94082   1.000
    O649    O    0.34053   0.17240   0.94082   1.000
    O650    O    0.83980   0.74982   0.93097   1.000
    O651    O    0.89004   0.78359   0.95029   1.000
    O652    O    0.33987   0.74972   0.93100   1.000
    O653    O    0.39011   0.78350   0.95020   1.000
    O654    O    0.32584   0.65399   0.95309   1.000
    O655    O    0.82578   0.65407   0.95310   1.000
    O656    O    0.77653   0.51466   0.95564   1.000
    O657    O    0.27660   0.51456   0.95603   1.000
    O658    O    0.10237   0.45609   0.96425   1.000
    O659    O    0.60235   0.45607   0.96431   1.000
    O660    O    0.04647   0.33172   0.96907   1.000
    O661    O    0.54647   0.33168   0.96909   1.000
    O662    O    0.40216   0.16899   0.96604   1.000
    O663    O    0.38288   0.08465   0.97292   1.000
    O664    O    0.90204   0.16910   0.96606   1.000
    O665    O    0.88278   0.08474   0.97293   1.000
    O666    O    0.95252   0.83661   0.96731   1.000
    O667    O    0.93746   0.96369   0.97454   1.000
    O668    O    0.45260   0.83652   0.96717   1.000
    O669    O    0.43756   0.96360   0.97453   1.000
    O670    O    0.81187   0.55300   0.97542   1.000
    O671    O    0.31191   0.55293   0.97545   1.000
    O672    O    0.81663   0.46247   0.98019   1.000
    O673    O    0.31667   0.46239   0.98028   1.000
    O674    O    0.08926   0.37149   0.98327   1.000
    O675    O    0.58926   0.37145   0.98329   1.000
loop_
    _geom_bond_atom_site_label_1
    _geom_bond_atom_site_label_2
    _geom_bond_distance
    _geom_bond_site_symmetry_2
    _ccdc_geom_bond_type
    C157   O320      0.69324      .   S
    C155   O320      0.69324      .   S
    C157   O321      0.54431      .   S
    C31    O321      0.54431      .   S
    C157   O322      0.67623  1_554   S
    C281   O322      0.67623      .   S
    C156   O323      0.69325      .   S
    C154   O323      0.69325      .   S
    C156   O324      0.54437      .   S
    C30    O324      0.54437      .   S
    C156   O325      0.67819  1_554   S
    C280   O325      0.67819      .   S
    C317   O326      0.99964  1_565   S
    C5     O326      0.99964      .   S
    C317   O327      0.64028      .   S
    C267   O327      0.64028      .   S
    C316   O328      0.99964  1_565   S
    C4     O328      0.99964      .   S
    C316   O329      0.64030      .   S
    C266   O329      0.64030      .   S
    C88    O330      0.55079      .   S
    C238   O330      0.55079      .   S
    C89    O331      0.55079      .   S
    C239   O331      0.55079      .   S
    C155   O332      0.54499      .   S
    C29    O332      0.54499      .   S
    C155   O333      0.70135  1_554   S
    C153   O333      0.70135      .   S
    C154   O334      0.54470      .   S
    C28    O334      0.54470      .   S
    C154   O335      0.70136  1_554   S
    C152   O335      0.70136      .   S
    C238   O336      0.75187      .   S
    C232   O336      0.75187      .   S
    C238   O337      0.54964      .   S
    C90    O337      0.54964      .   S
    C238   O338      0.77309  1_554   S
    C158   O338      0.77309      .   S
    C239   O339      0.75187      .   S
    C233   O339      0.75187      .   S
    C239   O340      0.54967      .   S
    C91    O340      0.54967      .   S
    C239   O341      0.77309  1_554   S
    C159   O341      0.77309      .   S
    C232   O342      0.69994      .   S
    C230   O342      0.69994      .   S
    C232   O343      0.70140      .   S
    C234   O343      0.70140  1_556   S
    C233   O344      0.69999      .   S
    C231   O344      0.69999      .   S
    C233   O345      0.70139      .   S
    C235   O345      0.70139  1_556   S
    C319   O346      0.64168      .   S
    C267   O346      0.64168      .   S
    C319   O347      1.01297  1_554   S
    C0     O347      1.01297      .   S
    C318   O348      0.64171      .   S
    C266   O348      0.64171      .   S
    C318   O349      1.01306  1_554   S
    C1     O349      1.01306  1_655   S
    C284   O350      1.02194      .   S
    C4     O350      1.02194      .   S
    C284   O351      0.67571      .   S
    C228   O351      0.67571      .   S
    C284   O352      0.67617      .   S
    C236   O352      0.67617  1_556   S
    C285   O353      1.02194      .   S
    C5     O353      1.02194      .   S
    C285   O354      0.67559      .   S
    C229   O354      0.67559      .   S
    C285   O355      0.67620      .   S
    C237   O355      0.67620  1_556   S
    C4     O356      0.96920  1_455   S
    C305   O356      0.96920      .   S
    C4     O357      1.01316  1_455   S
    C303   O357      1.01316  1_556   S
    C5     O358      0.96920      .   S
    C304   O358      0.96920      .   S
    C5     O359      1.01305      .   S
    C302   O359      1.01305  1_556   S
    C266   O360      0.74202      .   S
    C260   O360      0.74202      .   S
    C267   O361      0.74231      .   S
    C261   O361      0.74231      .   S
    C104   O362      0.54428      .   S
    C262   O362      0.54428      .   S
    C105   O363      0.54426      .   S
    C263   O363      0.54426      .   S
    C231   O364      0.69498      .   S
    C229   O364      0.69498      .   S
    C231   O365      0.54521      .   S
    C83    O365      0.54521      .   S
    C230   O366      0.69493      .   S
    C228   O366      0.69493      .   S
    C230   O367      0.54525      .   S
    C82    O367      0.54525      .   S
    C229   O368      0.54554      .   S
    C81    O368      0.54554      .   S
    C228   O369      0.54536      .   S
    C80    O369      0.54536      .   S
    C260   O370      0.70171      .   S
    C262   O370      0.70171      .   S
    C260   O371      0.70191      .   S
    C258   O371      0.70191      .   S
    C261   O372      0.70152      .   S
    C263   O372      0.70152      .   S
    C261   O373      0.70176      .   S
    C259   O373      0.70176      .   S
    C262   O374      0.69489      .   S
    C264   O374      0.69489      .   S
    C263   O375      0.69495      .   S
    C265   O375      0.69495      .   S
    C304   O376      0.65592      .   S
    C200   O376      0.65592      .   S
    C305   O377      0.65518      .   S
    C201   O377      0.65518      .   S
    C103   O378      0.54454      .   S
    C259   O378      0.54454      .   S
    C102   O379      0.54437      .   S
    C258   O379      0.54437      .   S
    C258   O380      0.69464      .   S
    C256   O380      0.69464      .   S
    C259   O381      0.69470      .   S
    C257   O381      0.69470      .   S
    C264   O382      0.54431      .   S
    C106   O382      0.54431      .   S
    C264   O383      0.70423      .   S
    C254   O383      0.70423      .   S
    C265   O384      0.54435      .   S
    C107   O384      0.54435      .   S
    C265   O385      0.70422      .   S
    C255   O385      0.70422      .   S
    C201   O386      0.62363  1_655   S
    C306   O386      0.62363      .   S
    C201   O387      0.75180  1_545   S
    C203   O387      0.75180      .   S
    C200   O388      0.62347      .   S
    C307   O388      0.62347      .   S
    C200   O389      0.75123  1_545   S
    C202   O389      0.75123      .   S
    C64    O390      0.54386      .   S
    C204   O390      0.54386  1_565   S
    C65    O391      0.54386      .   S
    C205   O391      0.54386  1_565   S
    C256   O392      0.70499      .   S
    C254   O392      0.70499      .   S
    C256   O393      0.54513      .   S
    C100   O393      0.54513      .   S
    C257   O394      0.70496      .   S
    C255   O394      0.70496      .   S
    C257   O395      0.54512      .   S
    C101   O395      0.54512      .   S
    C254   O396      0.73809      .   S
    C248   O396      0.73809      .   S
    C255   O397      0.73876      .   S
    C249   O397      0.73876      .   S
    C96    O398      0.54557  1_455   S
    C251   O398      0.54557      .   S
    C97    O399      0.54498      .   S
    C250   O399      0.54498      .   S
    C204   O400      0.70139      .   S
    C202   O400      0.70139      .   S
    C204   O401      0.69455      .   S
    C206   O401      0.69455      .   S
    C205   O402      0.70139      .   S
    C203   O402      0.70139      .   S
    C205   O403      0.69484      .   S
    C207   O403      0.69484      .   S
    C202   O404      0.70118      .   S
    C212   O404      0.70118      .   S
    C203   O405      0.70109      .   S
    C213   O405      0.70109      .   S
    C250   O406      0.70438      .   S
    C248   O406      0.70438      .   S
    C250   O407      0.69571      .   S
    C253   O407      0.69571      .   S
    C251   O408      0.70428      .   S
    C249   O408      0.70428      .   S
    C251   O409      0.69562  1_655   S
    C252   O409      0.69562      .   S
    C248   O410      0.70498      .   S
    C246   O410      0.70498      .   S
    C249   O411      0.70425      .   S
    C247   O411      0.70425      .   S
    C66    O412      0.54507      .   S
    C206   O412      0.54507      .   S
    C67    O413      0.54520      .   S
    C207   O413      0.54520      .   S
    C206   O414      0.70479      .   S
    C208   O414      0.70479      .   S
    C207   O415      0.70439      .   S
    C209   O415      0.70439      .   S
    C99    O416      0.54463      .   S
    C253   O416      0.54463      .   S
    C98    O417      0.54462      .   S
    C252   O417      0.54462      .   S
    C212   O418      0.54461      .   S
    C71    O418      0.54461      .   S
    C212   O419      0.69568      .   S
    C210   O419      0.69568      .   S
    C213   O420      0.54460      .   S
    C70    O420      0.54460  1_455   S
    C213   O421      0.69575      .   S
    C211   O421      0.69575      .   S
    C253   O422      0.70119      .   S
    C243   O422      0.70119      .   S
    C252   O423      0.70116      .   S
    C242   O423      0.70116      .   S
    C246   O424      0.54521      .   S
    C94    O424      0.54521      .   S
    C246   O425      0.69481      .   S
    C244   O425      0.69481      .   S
    C247   O426      0.54520      .   S
    C95    O426      0.54520      .   S
    C247   O427      0.69491      .   S
    C245   O427      0.69491      .   S
    C208   O428      0.70425      .   S
    C210   O428      0.70425      .   S
    C208   O429      0.73878      .   S
    C214   O429      0.73878      .   S
    C209   O430      0.70426      .   S
    C211   O430      0.70426      .   S
    C209   O431      0.73879      .   S
    C215   O431      0.73879      .   S
    C210   O432      0.54501      .   S
    C68    O432      0.54501      .   S
    C211   O433      0.54501      .   S
    C69    O433      0.54501      .   S
    C243   O434      0.70142      .   S
    C244   O434      0.70142      .   S
    C243   O435      0.75103      .   S
    C241   O435      0.75103      .   S
    C242   O436      0.70140  1_455   S
    C245   O436      0.70140      .   S
    C242   O437      0.75084      .   S
    C240   O437      0.75084      .   S
    C244   O438      0.54388      .   S
    C92    O438      0.54388      .   S
    C245   O439      0.54388      .   S
    C93    O439      0.54388      .   S
    C72    O440      0.54509      .   S
    C216   O440      0.54509      .   S
    C73    O441      0.54511      .   S
    C217   O441      0.54511      .   S
    C214   O442      0.70498      .   S
    C216   O442      0.70498      .   S
    C214   O443      0.70428      .   S
    C224   O443      0.70428      .   S
    C215   O444      0.70498      .   S
    C217   O444      0.70498      .   S
    C215   O445      0.70424      .   S
    C225   O445      0.70424      .   S
    C216   O446      0.69463      .   S
    C218   O446      0.69463      .   S
    C217   O447      0.69460      .   S
    C219   O447      0.69460      .   S
    C315   O448      0.62344      .   S
    C241   O448      0.62344      .   S
    C314   O449      0.62346      .   S
    C240   O449      0.62346      .   S
    C240   O450      0.65619      .   S
    C312   O450      0.65619      .   S
    C241   O451      0.65600      .   S
    C313   O451      0.65600      .   S
    C79    O452      0.54434      .   S
    C225   O452      0.54434      .   S
    C78    O453      0.54434      .   S
    C224   O453      0.54434      .   S
    C225   O454      0.69494      .   S
    C223   O454      0.69494      .   S
    C224   O455      0.69490      .   S
    C222   O455      0.69490      .   S
    C219   O456      0.54438      .   S
    C75    O456      0.54438      .   S
    C219   O457      0.70178      .   S
    C221   O457      0.70178      .   S
    C218   O458      0.54439      .   S
    C74    O458      0.54439      .   S
    C218   O459      0.70176      .   S
    C220   O459      0.70176      .   S
    C109   O460      0.54512      .   S
    C269   O460      0.54512      .   S
    C108   O461      0.54293      .   S
    C268   O461      0.54293      .   S
    C313   O462      0.96841      .   S
    C7     O462      0.96841      .   S
    C312   O463      0.96876      .   S
    C6     O463      0.96876      .   S
    C111   O464      0.54524      .   S
    C271   O464      0.54524      .   S
    C110   O465      0.54523      .   S
    C270   O465      0.54523      .   S
    C223   O466      0.70150      .   S
    C221   O466      0.70150      .   S
    C223   O467      0.54430      .   S
    C77    O467      0.54430      .   S
    C222   O468      0.70151      .   S
    C220   O468      0.70151      .   S
    C222   O469      0.54429      .   S
    C76    O469      0.54429      .   S
    C221   O470      0.74209      .   S
    C227   O470      0.74209      .   S
    C220   O471      0.74172      .   S
    C226   O471      0.74172      .   S
    C268   O472      0.69454      .   S
    C270   O472      0.69454      .   S
    C268   O473      0.67863      .   S
    C286   O473      0.67863      .   S
    C269   O474      0.69490      .   S
    C271   O474      0.69490      .   S
    C269   O475      0.67614      .   S
    C287   O475      0.67614      .   S
    C271   O476      0.69999      .   S
    C273   O476      0.69999      .   S
    C270   O477      0.69997      .   S
    C272   O477      0.69997      .   S
    C119   O478      0.54965      .   S
    C278   O478      0.54965      .   S
    C118   O479      0.54968  1_455   S
    C279   O479      0.54968      .   S
    C57    O480      0.54501      .   S
    C195   O480      0.54501      .   S
    C56    O481      0.54501      .   S
    C194   O481      0.54501      .   S
    C59    O482      0.54443      .   S
    C197   O482      0.54443      .   S
    C58    O483      0.54440      .   S
    C196   O483      0.54440      .   S
    C226   O484      0.64197      .   S
    C311   O484      0.64197  1_655   S
    C226   O485      0.64042      .   S
    C308   O485      0.64042      .   S
    C227   O486      0.64176      .   S
    C310   O486      0.64176      .   S
    C227   O487      0.64025      .   S
    C309   O487      0.64025      .   S
    C7     O488      1.02244      .   S
    C287   O488      1.02244      .   S
    C7     O489      1.00125      .   S
    C309   O489      1.00125      .   S
    C7     O490      1.01149      .   S
    C295   O490      1.01149      .   S
    C6     O491      1.02244      .   S
    C286   O491      1.02244      .   S
    C6     O492      1.00109      .   S
    C308   O492      1.00109      .   S
    C6     O493      1.01178      .   S
    C294   O493      1.01178      .   S
    C287   O494      0.67606      .   S
    C277   O494      0.67606      .   S
    C286   O495      0.67607      .   S
    C276   O495      0.67607      .   S
    C310   O496      1.01206      .   S
    C2     O496      1.01206      .   S
    C311   O497      1.01210      .   S
    C3     O497      1.01210      .   S
    C272   O498      0.75182      .   S
    C278   O498      0.75182      .   S
    C272   O499      0.70070      .   S
    C274   O499      0.70070      .   S
    C273   O500      0.75182      .   S
    C279   O500      0.75182      .   S
    C273   O501      0.70119      .   S
    C275   O501      0.70119      .   S
    C278   O502      0.55089  1_545   S
    C116   O502      0.55089      .   S
    C278   O503      0.77292      .   S
    C199   O503      0.77292  1_565   S
    C279   O504      0.55091  1_545   S
    C117   O504      0.55091      .   S
    C279   O505      0.77285  1_655   S
    C198   O505      0.77285  1_565   S
    C195   O506      0.69317      .   S
    C197   O506      0.69317      .   S
    C195   O507      0.70124      .   S
    C193   O507      0.70124      .   S
    C194   O508      0.69317      .   S
    C196   O508      0.69317      .   S
    C194   O509      0.70126      .   S
    C192   O509      0.70126      .   S
    C197   O510      0.67608      .   S
    C283   O510      0.67608      .   S
    C196   O511      0.67610      .   S
    C282   O511      0.67610      .   S
    C276   O512      0.69325      .   S
    C274   O512      0.69325      .   S
    C276   O513      0.54440      .   S
    C114   O513      0.54440      .   S
    C277   O514      0.69320      .   S
    C275   O514      0.69320      .   S
    C277   O515      0.54422      .   S
    C115   O515      0.54422      .   S
    C292   O516      1.00053      .   S
    C2     O516      1.00053      .   S
    C292   O517      0.64029      .   S
    C146   O517      0.64029      .   S
    C293   O518      1.00053      .   S
    C3     O518      1.00053      .   S
    C293   O519      0.64028      .   S
    C147   O519      0.64028      .   S
    C61    O520      0.55088      .   S
    C199   O520      0.55088  1_565   S
    C60    O521      0.55089      .   S
    C198   O521      0.55089  1_565   S
    C274   O522      0.54548      .   S
    C112   O522      0.54548      .   S
    C275   O523      0.54500      .   S
    C113   O523      0.54500      .   S
    C199   O524      0.75181      .   S
    C193   O524      0.75181      .   S
    C199   O525      0.54902      .   S
    C62    O525      0.54902      .   S
    C198   O526      0.75182      .   S
    C192   O526      0.75182      .   S
    C198   O527      0.54972      .   S
    C63    O527      0.54972  1_655   S
    C192   O528      0.69996      .   S
    C190   O528      0.69996      .   S
    C193   O529      0.69997      .   S
    C191   O529      0.69997      .   S
    C295   O530      0.64196      .   S
    C146   O530      0.64196      .   S
    C294   O531      0.64170  1_455   S
    C147   O531      0.64170      .   S
    C282   O532      1.02236      .   S
    C2     O532      1.02236      .   S
    C282   O533      0.67565      .   S
    C188   O533      0.67565      .   S
    C283   O534      1.02241      .   S
    C3     O534      1.02241      .   S
    C283   O535      0.67569      .   S
    C189   O535      0.67569      .   S
    C2     O536      0.96882      .   S
    C296   O536      0.96882      .   S
    C3     O537      0.96885      .   S
    C297   O537      0.96885      .   S
    C146   O538      0.74214      .   S
    C140   O538      0.74214      .   S
    C147   O539      0.74214      .   S
    C141   O539      0.74214      .   S
    C20    O540      0.54428      .   S
    C142   O540      0.54428      .   S
    C21    O541      0.54426      .   S
    C143   O541      0.54426      .   S
    C190   O542      0.69499      .   S
    C188   O542      0.69499      .   S
    C190   O543      0.54523      .   S
    C54    O543      0.54523      .   S
    C191   O544      0.69499      .   S
    C189   O544      0.69499      .   S
    C191   O545      0.54523      .   S
    C55    O545      0.54523      .   S
    C188   O546      0.54553      .   S
    C52    O546      0.54553      .   S
    C189   O547      0.54556      .   S
    C53    O547      0.54556      .   S
    C141   O548      0.70150      .   S
    C143   O548      0.70150      .   S
    C141   O549      0.70173      .   S
    C139   O549      0.70173      .   S
    C140   O550      0.70150      .   S
    C142   O550      0.70150      .   S
    C140   O551      0.70174      .   S
    C138   O551      0.70174      .   S
    C142   O552      0.69478      .   S
    C144   O552      0.69478      .   S
    C143   O553      0.69488      .   S
    C145   O553      0.69488      .   S
    C296   O554      0.65594      .   S
    C160   O554      0.65594      .   S
    C297   O555      0.65595      .   S
    C161   O555      0.65595      .   S
    C18    O556      0.54437      .   S
    C138   O556      0.54437      .   S
    C19    O557      0.54437      .   S
    C139   O557      0.54437      .   S
    C139   O558      0.69466      .   S
    C137   O558      0.69466      .   S
    C138   O559      0.69451      .   S
    C136   O559      0.69451      .   S
    C144   O560      0.54436      .   S
    C22    O560      0.54436      .   S
    C144   O561      0.70433      .   S
    C134   O561      0.70433      .   S
    C145   O562      0.54434      .   S
    C23    O562      0.54434      .   S
    C145   O563      0.70425      .   S
    C135   O563      0.70425      .   S
    C160   O564      0.62342      .   S
    C298   O564      0.62342      .   S
    C160   O565      0.75120      .   S
    C162   O565      0.75120      .   S
    C161   O566      0.62342      .   S
    C299   O566      0.62342      .   S
    C161   O567      0.75123      .   S
    C163   O567      0.75123      .   S
    C37    O568      0.54387      .   S
    C165   O568      0.54387      .   S
    C36    O569      0.54393      .   S
    C164   O569      0.54393      .   S
    C136   O570      0.70500      .   S
    C134   O570      0.70500      .   S
    C136   O571      0.54523      .   S
    C16    O571      0.54523      .   S
    C137   O572      0.70497      .   S
    C135   O572      0.70497      .   S
    C137   O573      0.54508      .   S
    C17    O573      0.54508      .   S
    C135   O574      0.73873      .   S
    C129   O574      0.73873      .   S
    C134   O575      0.73871      .   S
    C128   O575      0.73871      .   S
    C12    O576      0.54566      .   S
    C130   O576      0.54566      .   S
    C13    O577      0.54504      .   S
    C131   O577      0.54504      .   S
    C165   O578      0.70141      .   S
    C162   O578      0.70141      .   S
    C165   O579      0.69482      .   S
    C167   O579      0.69482      .   S
    C164   O580      0.70141      .   S
    C163   O580      0.70141  1_655   S
    C164   O581      0.69445      .   S
    C166   O581      0.69445      .   S
    C162   O582      0.70103      .   S
    C172   O582      0.70103      .   S
    C163   O583      0.70123      .   S
    C173   O583      0.70123      .   S
    C131   O584      0.70425      .   S
    C129   O584      0.70425      .   S
    C131   O585      0.69566      .   S
    C133   O585      0.69566      .   S
    C130   O586      0.70425      .   S
    C128   O586      0.70425      .   S
    C130   O587      0.69565      .   S
    C132   O587      0.69565      .   S
    C129   O588      0.70432      .   S
    C127   O588      0.70432      .   S
    C128   O589      0.70435      .   S
    C126   O589      0.70435      .   S
    C39    O590      0.54521      .   S
    C167   O590      0.54521      .   S
    C38    O591      0.54522      .   S
    C166   O591      0.54522      .   S
    C166   O592      0.70463      .   S
    C168   O592      0.70463      .   S
    C167   O593      0.70442      .   S
    C169   O593      0.70442      .   S
    C14    O594      0.54462      .   S
    C133   O594      0.54462      .   S
    C15    O595      0.54460  1_655   S
    C132   O595      0.54460      .   S
    C172   O596      0.54461      .   S
    C42    O596      0.54461      .   S
    C172   O597      0.69587      .   S
    C171   O597      0.69587      .   S
    C173   O598      0.54462      .   S
    C43    O598      0.54462      .   S
    C173   O599      0.69572      .   S
    C170   O599      0.69572  1_455   S
    C133   O600      0.70113      .   S
    C123   O600      0.70113      .   S
    C132   O601      0.70113      .   S
    C122   O601      0.70113      .   S
    C127   O602      0.54520      .   S
    C11    O602      0.54520      .   S
    C127   O603      0.74062      .   S
    C125   O603      0.74062      .   S
    C126   O604      0.54521      .   S
    C10    O604      0.54521      .   S
    C126   O605      0.74078      .   S
    C124   O605      0.74078      .   S
    C169   O606      0.70429      .   S
    C171   O606      0.70429      .   S
    C169   O607      0.73884      .   S
    C175   O607      0.73884      .   S
    C168   O608      0.70427      .   S
    C170   O608      0.70427      .   S
    C168   O609      0.73891      .   S
    C174   O609      0.73891      .   S
    C171   O610      0.54497      .   S
    C40    O610      0.54497      .   S
    C170   O611      0.54493      .   S
    C41    O611      0.54493  1_655   S
    C123   O612      0.68885      .   S
    C125   O612      0.68885      .   S
    C123   O613      0.75099      .   S
    C121   O613      0.75099  1_565   S
    C122   O614      0.68888      .   S
    C124   O614      0.68888      .   S
    C122   O615      0.75109      .   S
    C120   O615      0.75109  1_565   S
    C125   O616      0.54404  1_545   S
    C9     O616      0.54404      .   S
    C124   O617      0.54304  1_545   S
    C8     O617      0.54304      .   S
    C45    O618      0.54498      .   S
    C177   O618      0.54498      .   S
    C44    O619      0.54514      .   S
    C176   O619      0.54514      .   S
    C175   O620      0.70481      .   S
    C177   O620      0.70481      .   S
    C175   O621      0.70426      .   S
    C185   O621      0.70426      .   S
    C174   O622      0.70498      .   S
    C176   O622      0.70498      .   S
    C174   O623      0.70424      .   S
    C184   O623      0.70424      .   S
    C177   O624      0.69503      .   S
    C179   O624      0.69503      .   S
    C176   O625      0.69467      .   S
    C178   O625      0.69467      .   S
    C291   O626      0.62343      .   S
    C120   O626      0.62343  1_455   S
    C290   O627      0.62342      .   S
    C121   O627      0.62342      .   S
    C121   O628      0.65591      .   S
    C289   O628      0.65591      .   S
    C120   O629      0.65579      .   S
    C288   O629      0.65579      .   S
    C51    O630      0.54435      .   S
    C185   O630      0.54435      .   S
    C50    O631      0.54432      .   S
    C184   O631      0.54432      .   S
    C185   O632      0.69491      .   S
    C183   O632      0.69491      .   S
    C184   O633      0.69500      .   S
    C182   O633      0.69500      .   S
    C179   O634      0.54436      .   S
    C47    O634      0.54436      .   S
    C179   O635      0.70174      .   S
    C181   O635      0.70174      .   S
    C178   O636      0.54438      .   S
    C46    O636      0.54438      .   S
    C178   O637      0.70178      .   S
    C180   O637      0.70178      .   S
    C25    O638      0.54517      .   S
    C149   O638      0.54517      .   S
    C24    O639      0.54554      .   S
    C148   O639      0.54554      .   S
    C289   O640      0.96892      .   S
    C0     O640      0.96892      .   S
    C288   O641      0.96899      .   S
    C1     O641      0.96899  1_655   S
    C27    O642      0.54527      .   S
    C151   O642      0.54527      .   S
    C26    O643      0.54467      .   S
    C150   O643      0.54467      .   S
    C183   O644      0.70155      .   S
    C181   O644      0.70155      .   S
    C183   O645      0.54430      .   S
    C49    O645      0.54430      .   S
    C182   O646      0.70153      .   S
    C180   O646      0.70153      .   S
    C182   O647      0.54428      .   S
    C48    O647      0.54428      .   S
    C181   O648      0.74232      .   S
    C187   O648      0.74232      .   S
    C180   O649      0.74230      .   S
    C186   O649      0.74230      .   S
    C149   O650      0.69462      .   S
    C151   O650      0.69462      .   S
    C149   O651      0.67652      .   S
    C281   O651      0.67652      .   S
    C148   O652      0.69514      .   S
    C150   O652      0.69514      .   S
    C148   O653      0.67268      .   S
    C280   O653      0.67268      .   S
    C150   O654      0.70031      .   S
    C152   O654      0.70031      .   S
    C151   O655      0.69997      .   S
    C153   O655      0.69997      .   S
    C35    O656      0.55795      .   S
    C159   O656      0.55795      .   S
    C34    O657      0.54961      .   S
    C158   O657      0.54961      .   S
    C84    O658      0.54550      .   S
    C234   O658      0.54550      .   S
    C85    O659      0.54497      .   S
    C235   O659      0.54497      .   S
    C86    O660      0.54435      .   S
    C236   O660      0.54435      .   S
    C87    O661      0.54439      .   S
    C237   O661      0.54439      .   S
    C186   O662      0.64173      .   S
    C302   O662      0.64173      .   S
    C186   O663      0.64030      .   S
    C300   O663      0.64030      .   S
    C187   O664      0.64169      .   S
    C303   O664      0.64169      .   S
    C187   O665      0.64030      .   S
    C301   O665      0.64030      .   S
    C1     O666      1.02198      .   S
    C281   O666      1.02198      .   S
    C1     O667      1.00031      .   S
    C301   O667      1.00031  1_545   S
    C0     O668      1.02299      .   S
    C280   O668      1.02299      .   S
    C0     O669      1.00033      .   S
    C300   O669      1.00033  1_545   S
    C153   O670      0.75188      .   S
    C159   O670      0.75188      .   S
    C152   O671      0.75187      .   S
    C158   O671      0.75187      .   S
    C159   O672      0.55081      .   S
    C33    O672      0.55081      .   S
    C158   O673      0.55079      .   S
    C32    O673      0.55079      .   S
    C234   O674      0.69322      .   S
    C236   O674      0.69322      .   S
    C235   O675      0.69323      .   S
    C237   O675      0.69323      .   S
