# CIF file generated by openbabel 2.4.90, see http://openbabel.sf.net
data_I
_chemical_name_common ''
_cell_length_a 14.418
_cell_length_b 14.304
_cell_length_c 15.436
_cell_angle_alpha 89.978
_cell_angle_beta 90
_cell_angle_gamma 89.985
_space_group_name_H-M_alt 'P 1'
_space_group_name_Hall 'P 1'
loop_
    _symmetry_equiv_pos_as_xyz
    x,y,z
loop_
    _atom_site_label
    _atom_site_type_symbol
    _atom_site_fract_x
    _atom_site_fract_y
    _atom_site_fract_z
    _atom_site_occupancy
    Zn0     Zn   0.25000   0.74967   0.75005   1.000
    Si1     Si   0.25001   0.25102   0.99990   1.000
    Si2     Si   0.24999   0.24946   0.49996   1.000
    Si3     Si   0.25000   0.75054   0.80000   1.000
    Si4     Si   0.25000   0.75106   0.50001   1.000
    Si5     Si   0.74999   0.24948   0.00000   1.000
    Si6     Si   0.74999   0.24947   0.49990   1.000
    Si7     Si   0.74999   0.75055   0.99999   1.000
    Si8     Si   0.74999   0.75054   0.49998   1.000
    F9      F    0.83229   0.83477   0.49998   1.000
    F10     F    0.16489   0.16925   0.00000   1.000
    F11     F    0.16770   0.16526   0.49999   1.000
    F12     F    0.25000   0.25074   0.38504   1.000
    F13     F    0.25000   0.25100   0.88513   1.000
    F14     F    0.25000   0.75270   0.38506   1.000
    F15     F    0.74999   0.25072   0.38505   1.000
    F16     F    0.74999   0.25072   0.88500   1.000
    F17     F    0.74999   0.74931   0.38505   1.000
    F18     F    0.74999   0.74931   0.88500   1.000
    F19     F    0.25000   0.25101   0.11482   1.000
    F20     F    0.25000   0.25072   0.61491   1.000
    F21     F    0.25000   0.74931   0.61493   1.000
    F22     F    0.74999   0.25071   0.11493   1.000
    F23     F    0.74999   0.25071   0.61492   1.000
    F24     F    0.74999   0.74930   0.11493   1.000
    F25     F    0.74999   0.74930   0.61492   1.000
    F26     F    0.33510   0.33279   0.99998   1.000
    F27     F    0.33259   0.33320   0.49990   1.000
    F28     F    0.33230   0.83479   0.99999   1.000
    F29     F    0.33244   0.83500   0.50022   1.000
    F30     F    0.83258   0.33319   0.99999   1.000
    F31     F    0.83260   0.33319   0.49998   1.000
    F32     F    0.83229   0.83477   0.99999   1.000
    F33     F    0.16756   0.66704   0.49975   1.000
    F34     F    0.66769   0.16525   0.00000   1.000
    F35     F    0.66768   0.16525   0.49999   1.000
    F36     F    0.66739   0.66683   0.00000   1.000
    F37     F    0.66738   0.66683   0.49999   1.000
    F38     F    0.16884   0.33684   0.99998   1.000
    F39     F    0.16737   0.33321   0.49990   1.000
    F40     F    0.16769   0.83479   0.99999   1.000
    F41     F    0.16754   0.83502   0.50022   1.000
    F42     F    0.66736   0.33320   0.99999   1.000
    F43     F    0.66737   0.33320   0.49998   1.000
    F44     F    0.66767   0.83479   0.99999   1.000
    F45     F    0.66768   0.83478   0.49998   1.000
    F46     F    0.33119   0.16520   0.00000   1.000
    F47     F    0.33231   0.16525   0.49999   1.000
    F48     F    0.33262   0.66683   0.99998   1.000
    F49     F    0.33246   0.66702   0.49975   1.000
    F50     F    0.83230   0.16524   0.00000   1.000
    F51     F    0.83230   0.16523   0.49999   1.000
    F52     F    0.83262   0.66682   0.00000   1.000
    F53     F    0.83261   0.66682   0.49999   1.000
loop_
    _geom_bond_atom_site_label_1
    _geom_bond_atom_site_label_2
    _geom_bond_distance
    _geom_bond_site_symmetry_2
    _ccdc_geom_bond_type
    F19    Si1       1.77391  1_554   S
    F22    Si5       1.77415      .   S
    F24    Si7       1.77430  1_554   S
    F12    Si2       1.77399      .   S
    F15    Si6       1.77291      .   S
    F17    Si8       1.77415      .   S
    F14    Si4       1.77451      .   S
    F33    Si4       1.69059      .   S
    F49    Si4       1.69060      .   S
    Si6    F31       1.68921      .   S
    Si6    F43       1.68899      .   S
    Si6    F35       1.69129      .   S
    Si6    F51       1.69094      .   S
    Si6    F23       1.77554      .   S
    F39    Si2       1.68911      .   S
    F27    Si2       1.68931      .   S
    Si2    F47       1.69093      .   S
    Si2    F11       1.69095      .   S
    Si2    F20       1.77447      .   S
    F9     Si8       1.69124      .   S
    F45    Si8       1.69113      .   S
    Si8    F53       1.68892      .   S
    Si8    F37       1.68912      .   S
    Si8    F25       1.77430      .   S
    Si4    F41       1.68965      .   S
    Si4    F29       1.68978      .   S
    Si4    F21       1.77407      .   S
    Zn0    Si3       0.77113      .   S
    F16    Si5       1.77522  1_556   S
    F18    Si7       1.77508      .   S
    F13    Si1       1.77159      .   S
    Si1    F38       1.69582      .   S
    Si1    F26       1.69529      .   S
    Si1    F46       1.69590  1_556   S
    Si1    F10       1.69547  1_556   S
    F30    Si5       1.68900  1_556   S
    Si7    F32       1.69116      .   S
    Si7    F44       1.69112      .   S
    Si7    F36       1.68913  1_556   S
    Si7    F52       1.68898  1_556   S
    F42    Si5       1.68894  1_556   S
    Si5    F50       1.69118      .   S
    Si5    F34       1.69124      .   S
