# CIF file generated by openbabel 2.4.90, see http://openbabel.sf.net
data_I
_chemical_name_common ''
_cell_length_a 14.418
_cell_length_b 14.304
_cell_length_c 15.436
_cell_angle_alpha 89.978
_cell_angle_beta 90
_cell_angle_gamma 89.985
_space_group_name_H-M_alt 'P 1'
_space_group_name_Hall 'P 1'
loop_
    _symmetry_equiv_pos_as_xyz
    x,y,z
loop_
    _atom_site_label
    _atom_site_type_symbol
    _atom_site_fract_x
    _atom_site_fract_y
    _atom_site_fract_z
    _atom_site_occupancy
    H0      H    0.25041   0.41268   0.38571   1.000
    H1      H    0.24979   0.91296   0.38491   1.000
    H2      H    0.74991   0.41231   0.38531   1.000
    H3      H    0.74990   0.41230   0.88531   1.000
    H4      H    0.74995   0.91242   0.38534   1.000
    H5      H    0.74999   0.91242   0.88530   1.000
    H6      H    0.24981   0.08799   0.38487   1.000
    H7      H    0.25043   0.58800   0.38581   1.000
    H8      H    0.75000   0.08748   0.38535   1.000
    H9      H    0.75000   0.08748   0.88534   1.000
    H10     H    0.74995   0.58762   0.38531   1.000
    H11     H    0.74990   0.58761   0.88532   1.000
    H12     H    0.08702   0.25097   0.38524   1.000
    H13     H    0.08698   0.24930   0.88530   1.000
    H14     H    0.08696   0.75027   0.38530   1.000
    H15     H    0.58695   0.24988   0.38531   1.000
    H16     H    0.58697   0.25037   0.88525   1.000
    H17     H    0.41299   0.25014   0.38528   1.000
    H18     H    0.41303   0.25059   0.88527   1.000
    H19     H    0.91304   0.25071   0.38527   1.000
    H20     H    0.91302   0.24969   0.88529   1.000
    H21     H    0.91298   0.74999   0.38530   1.000
    H22     H    0.24927   0.41298   0.11500   1.000
    H23     H    0.25034   0.91291   0.11424   1.000
    H24     H    0.74995   0.41241   0.11465   1.000
    H25     H    0.74994   0.41241   0.61465   1.000
    H26     H    0.74996   0.91254   0.11463   1.000
    H27     H    0.74992   0.91254   0.61460   1.000
    H28     H    0.25069   0.08805   0.11418   1.000
    H29     H    0.24963   0.58819   0.11511   1.000
    H30     H    0.74997   0.08760   0.11464   1.000
    H31     H    0.74997   0.08760   0.61463   1.000
    H32     H    0.74995   0.58772   0.11465   1.000
    H33     H    0.74999   0.58772   0.61465   1.000
    H34     H    0.41307   0.25089   0.11466   1.000
    H35     H    0.41302   0.24999   0.61460   1.000
    H36     H    0.91300   0.24977   0.11467   1.000
    H37     H    0.91301   0.25069   0.61469   1.000
    H38     H    0.91304   0.74962   0.11470   1.000
    H39     H    0.08695   0.24955   0.11462   1.000
    H40     H    0.08698   0.25075   0.61468   1.000
    H41     H    0.08702   0.74983   0.11473   1.000
    H42     H    0.58700   0.25050   0.11471   1.000
    H43     H    0.58698   0.24992   0.61465   1.000
    C44     C    0.25022   0.45173   0.32515   1.000
    C45     C    0.24990   0.95183   0.32427   1.000
    C46     C    0.74993   0.45132   0.32473   1.000
    C47     C    0.74991   0.45131   0.82473   1.000
    C48     C    0.74997   0.95131   0.32469   1.000
    C49     C    0.74999   0.95131   0.82468   1.000
    C50     C    0.24993   0.04915   0.32423   1.000
    C51     C    0.25025   0.54908   0.32519   1.000
    C52     C    0.74999   0.04865   0.32470   1.000
    C53     C    0.74999   0.04865   0.82460   1.000
    C54     C    0.74995   0.54865   0.32473   1.000
    C55     C    0.74992   0.54865   0.82473   1.000
    C56     C    0.04835   0.25063   0.32463   1.000
    C57     C    0.04834   0.24977   0.82467   1.000
    C58     C    0.04832   0.75016   0.32471   1.000
    C59     C    0.54830   0.25002   0.32469   1.000
    C60     C    0.54831   0.25024   0.82463   1.000
    C61     C    0.45166   0.25018   0.32467   1.000
    C62     C    0.45167   0.25031   0.82464   1.000
    C63     C    0.95169   0.25051   0.32465   1.000
    C64     C    0.95168   0.24985   0.82467   1.000
    C65     C    0.95165   0.75002   0.32469   1.000
    C66     C    0.24969   0.45185   0.17566   1.000
    C67     C    0.25023   0.95180   0.17486   1.000
    C68     C    0.74994   0.45137   0.17520   1.000
    C69     C    0.74994   0.45138   0.67523   1.000
    C70     C    0.74997   0.95137   0.17528   1.000
    C71     C    0.74995   0.95137   0.67527   1.000
    C72     C    0.25032   0.04915   0.17482   1.000
    C73     C    0.24979   0.54918   0.17569   1.000
    C74     C    0.74998   0.04871   0.17529   1.000
    C75     C    0.74997   0.04871   0.67527   1.000
    C76     C    0.74995   0.54871   0.17524   1.000
    C77     C    0.74996   0.54871   0.67520   1.000
    C78     C    0.45169   0.25054   0.17529   1.000
    C79     C    0.45168   0.25003   0.67526   1.000
    C80     C    0.95166   0.24995   0.17528   1.000
    C81     C    0.95167   0.25043   0.67530   1.000
    C82     C    0.95169   0.74981   0.17532   1.000
    C83     C    0.04832   0.24997   0.17526   1.000
    C84     C    0.04833   0.25044   0.67530   1.000
    C85     C    0.04835   0.74993   0.17534   1.000
    C86     C    0.54833   0.25037   0.17532   1.000
    C87     C    0.54832   0.24998   0.67520   1.000
    N88     N    0.24993   0.40296   0.25038   1.000
    N89     N    0.25001   0.90290   0.24959   1.000
    N90     N    0.74992   0.40253   0.24990   1.000
    N91     N    0.74992   0.40253   0.74998   1.000
    N92     N    0.74996   0.90243   0.24990   1.000
    N93     N    0.74996   0.90243   0.74997   1.000
    N94     N    0.25014   0.09805   0.24950   1.000
    N95     N    0.25005   0.59794   0.25045   1.000
    N96     N    0.75002   0.09759   0.20000   1.000
    N97     N    0.75001   0.09759   0.74998   1.000
    N98     N    0.74997   0.59749   0.24998   1.000
    N99     N    0.74996   0.59749   0.74998   1.000
    N100    N    0.09691   0.25037   0.24994   1.000
    N101    N    0.09691   0.25012   0.74998   1.000
    N102    N    0.09690   0.75013   0.25004   1.000
    N103    N    0.59689   0.25016   0.25001   1.000
    N104    N    0.59689   0.25012   0.74995   1.000
    N105    N    0.40310   0.25044   0.24997   1.000
    N106    N    0.40310   0.25020   0.74995   1.000
    N107    N    0.90310   0.25020   0.24997   1.000
    N108    N    0.90310   0.25016   0.74999   1.000
    N109    N    0.90310   0.74984   0.25000   1.000
loop_
    _geom_bond_atom_site_label_1
    _geom_bond_atom_site_label_2
    _geom_bond_distance
    _geom_bond_site_symmetry_2
    _ccdc_geom_bond_type
    H28    C72       1.08880      .   S
    H23    C67       1.08875      .   S
    H39    C83       1.08921      .   S
    H26    C70       1.08875      .   S
    H30    C74       1.08878      .   S
    H32    C76       1.08889      .   S
    H24    C68       1.08840      .   S
    H34    C78       1.08905      .   S
    H36    C80       1.08908      .   S
    H38    C82       1.08909      .   S
    H42    C86       1.08911      .   S
    H41    C85       1.08913      .   S
    H22    C66       1.08922      .   S
    H29    C73       1.08877      .   S
    C72    C67       1.39245  1_545   S
    C72    N94       1.34862      .   S
    C67    N89       1.34879      .   S
    C68    C76       1.39227      .   S
    C68    N90       1.34797      .   S
    C76    N98       1.34855      .   S
    C83    C80       1.39370  1_455   S
    C83    N100      1.34893      .   S
    C70    C74       1.39237  1_565   S
    C70    N92       1.34769      .   S
    C80    N107      1.34886      .   S
    C74    N96       0.79656      .   S
    C78    C86       1.39339      .   S
    C78    N105      1.34892      .   S
    C86    N103      1.34883      .   S
    C82    C85       1.39369  1_655   S
    C82    N109      1.34892      .   S
    C85    N102      1.34895      .   S
    C66    C73       1.39217      .   S
    C66    N88       1.34862      .   S
    C73    N95       1.34865      .   S
    N94    C50       1.34881      .   S
    N89    C45       1.34881      .   S
    N92    C48       1.34990      .   S
    N90    C46       1.34974      .   S
    N100   C56       1.34887      .   S
    N107   C63       1.34893      .   S
    N105   C61       1.34898      .   S
    N98    C54       1.34864      .   S
    N109   C65       1.34882      .   S
    N103   C59       1.34892      .   S
    N102   C58       1.34880      .   S
    N88    C44       1.34881      .   S
    N95    C51       1.34866      .   S
    C50    C45       1.39205  1_545   S
    C50    H6        1.08872      .   S
    C45    H1        1.08854      .   S
    C56    C63       1.39366  1_455   S
    C56    H12       1.08910      .   S
    C63    H19       1.08909      .   S
    C61    C59       1.39337      .   S
    C61    H17       1.08909      .   S
    C65    C58       1.39367  1_655   S
    C65    H21       1.08912      .   S
    C59    H15       1.08908      .   S
    C48    C52       1.39237  1_565   S
    C48    H4        1.08878      .   S
    C52    H8        1.08875      .   S
    C58    H14       1.08867      .   S
    C46    C54       1.39225      .   S
    C46    H2        1.08877      .   S
    C54    H10       1.08881      .   S
    C44    C51       1.39255      .   S
    C44    H0        1.08875      .   S
    C51    H7        1.08901      .   S
    H35    C79       1.08966      .   S
    H27    C71       1.08902      .   S
    H31    C75       1.08865      .   S
    H25    C69       1.08879      .   S
    H43    C87       1.08825      .   S
    H33    C77       1.08839      .   S
    H40    C84       1.08912      .   S
    H37    C81       1.08905      .   S
    C77    C69       1.39225      .   S
    C77    N99       1.34906      .   S
    C87    C79       1.39334      .   S
    C87    N104      1.34971      .   S
    C69    N91       1.34866      .   S
    C79    N106      1.34899      .   S
    C71    C75       1.39237  1_565   S
    C71    N93       1.34874      .   S
    C75    N97       1.34883      .   S
    C84    C81       1.39364  1_455   S
    C84    N101      1.34888      .   S
    C81    N108      1.34893      .   S
    N106   C62       1.34892      .   S
    N104   C60       1.34883      .   S
    N93    C49       1.34884      .   S
    N91    C47       1.34865      .   S
    N101   C57       1.34892      .   S
    N99    C55       1.34866      .   S
    N97    C53       1.34769      .   S
    N108   C64       1.34885      .   S
    C53    C49       1.39235  1_545   S
    C53    H9        1.08996      .   S
    C60    C62       1.39340      .   S
    C60    H16       1.08915      .   S
    C62    H18       1.08916      .   S
    C64    C57       1.39372  1_655   S
    C64    H20       1.08912      .   S
    C57    H13       1.08917      .   S
    C49    H5        1.08839      .   S
    C47    C55       1.39227      .   S
    C47    H3        1.08879      .   S
    C55    H11       1.08891      .   S
