# CIF file generated by openbabel 2.4.90, see http://openbabel.sf.net
data_I
_chemical_name_common ''
_cell_length_a 14.418
_cell_length_b 14.304
_cell_length_c 15.436
_cell_angle_alpha 89.978
_cell_angle_beta 90
_cell_angle_gamma 89.985
_space_group_name_H-M_alt 'P 1'
_space_group_name_Hall 'P 1'
loop_
    _symmetry_equiv_pos_as_xyz
    x,y,z
loop_
    _atom_site_label
    _atom_site_type_symbol
    _atom_site_fract_x
    _atom_site_fract_y
    _atom_site_fract_z
    _atom_site_occupancy
    Zn0     Zn   0.25000   0.25053   0.74985   1.000
    Zn1     Zn   0.25000   0.74993   0.25010   1.000
    Zn2     Zn   0.74999   0.25042   0.25000   1.000
    Zn3     Zn   0.74999   0.25043   0.74999   1.000
    Zn4     Zn   0.74999   0.74959   0.24997   1.000
    Zn5     Zn   0.74999   0.74959   0.74997   1.000
    H6      H    0.25041   0.41268   0.38571   1.000
    H7      H    0.24979   0.91296   0.38491   1.000
    H8      H    0.74991   0.41231   0.38531   1.000
    H9      H    0.74990   0.41230   0.88531   1.000
    H10     H    0.74995   0.91242   0.38534   1.000
    H11     H    0.74999   0.91242   0.88530   1.000
    H12     H    0.24981   0.08799   0.38487   1.000
    H13     H    0.25043   0.58800   0.38581   1.000
    H14     H    0.75000   0.08748   0.38535   1.000
    H15     H    0.75000   0.08748   0.88534   1.000
    H16     H    0.74995   0.58762   0.38531   1.000
    H17     H    0.74990   0.58761   0.88532   1.000
    H18     H    0.08702   0.25097   0.38524   1.000
    Zn19    Zn   0.25000   0.25067   0.24996   1.000
    H20     H    0.08698   0.24930   0.88530   1.000
    H21     H    0.08696   0.75027   0.38530   1.000
    H22     H    0.58695   0.24988   0.38531   1.000
    H23     H    0.58697   0.25037   0.88525   1.000
    H24     H    0.41299   0.25014   0.38528   1.000
    H25     H    0.41303   0.25059   0.88527   1.000
    H26     H    0.91304   0.25071   0.38527   1.000
    H27     H    0.91302   0.24969   0.88529   1.000
    H28     H    0.91298   0.74999   0.38530   1.000
    H29     H    0.24927   0.41298   0.11500   1.000
    H30     H    0.25034   0.91291   0.11424   1.000
    H31     H    0.74995   0.41241   0.11465   1.000
    H32     H    0.74994   0.41241   0.61465   1.000
    H33     H    0.74996   0.91254   0.11463   1.000
    H34     H    0.74992   0.91254   0.61460   1.000
    H35     H    0.25069   0.08805   0.11418   1.000
    H36     H    0.24963   0.58819   0.11511   1.000
    H37     H    0.74997   0.08760   0.11464   1.000
    H38     H    0.74997   0.08760   0.61463   1.000
    H39     H    0.74995   0.58772   0.11465   1.000
    H40     H    0.74999   0.58772   0.61465   1.000
    H41     H    0.41307   0.25089   0.11466   1.000
    H42     H    0.41302   0.24999   0.61460   1.000
    H43     H    0.91300   0.24977   0.11467   1.000
    H44     H    0.91301   0.25069   0.61469   1.000
    H45     H    0.91304   0.74962   0.11470   1.000
    H46     H    0.08695   0.24955   0.11462   1.000
    H47     H    0.08698   0.25075   0.61468   1.000
    H48     H    0.08702   0.74983   0.11473   1.000
    H49     H    0.58700   0.25050   0.11471   1.000
    H50     H    0.58698   0.24992   0.61465   1.000
    C51     C    0.25022   0.45173   0.32515   1.000
    C52     C    0.24990   0.95183   0.32427   1.000
    C53     C    0.74993   0.45132   0.32473   1.000
    C54     C    0.74991   0.45131   0.82473   1.000
    C55     C    0.74997   0.95131   0.32469   1.000
    C56     C    0.74999   0.95131   0.82468   1.000
    C57     C    0.24993   0.04915   0.32423   1.000
    C58     C    0.25025   0.54908   0.32519   1.000
    C59     C    0.74999   0.04865   0.32470   1.000
    C60     C    0.74999   0.04865   0.82460   1.000
    C61     C    0.74995   0.54865   0.32473   1.000
    C62     C    0.74992   0.54865   0.82473   1.000
    C63     C    0.04835   0.25063   0.32463   1.000
    C64     C    0.04834   0.24977   0.82467   1.000
    C65     C    0.04832   0.75016   0.32471   1.000
    F66     F    0.16739   0.66683   0.20000   1.000
    C67     C    0.54830   0.25002   0.32469   1.000
    C68     C    0.54831   0.25024   0.82463   1.000
    C69     C    0.45166   0.25018   0.32467   1.000
    C70     C    0.45167   0.25031   0.82464   1.000
    C71     C    0.95169   0.25051   0.32465   1.000
    C72     C    0.95168   0.24985   0.82467   1.000
    C73     C    0.95165   0.75002   0.32469   1.000
    C74     C    0.24969   0.45185   0.17566   1.000
    C75     C    0.25023   0.95180   0.17486   1.000
    C76     C    0.74994   0.45137   0.17520   1.000
    C77     C    0.74994   0.45138   0.67523   1.000
    C78     C    0.74997   0.95137   0.17528   1.000
    C79     C    0.74995   0.95137   0.67527   1.000
    C80     C    0.25032   0.04915   0.17482   1.000
    C81     C    0.24979   0.54918   0.17569   1.000
    C82     C    0.74998   0.04871   0.17529   1.000
    C83     C    0.74997   0.04871   0.67527   1.000
    C84     C    0.74995   0.54871   0.17524   1.000
    C85     C    0.74996   0.54871   0.67520   1.000
    C86     C    0.45169   0.25054   0.17529   1.000
    C87     C    0.45168   0.25003   0.67526   1.000
    C88     C    0.95166   0.24995   0.17528   1.000
    C89     C    0.95167   0.25043   0.67530   1.000
    C90     C    0.95169   0.74981   0.17532   1.000
    C91     C    0.04832   0.24997   0.17526   1.000
    C92     C    0.04833   0.25044   0.67530   1.000
    C93     C    0.04835   0.74993   0.17534   1.000
    C94     C    0.54833   0.25037   0.17532   1.000
    C95     C    0.54832   0.24998   0.67520   1.000
    N96     N    0.24993   0.40296   0.25038   1.000
    N97     N    0.25001   0.90290   0.24959   1.000
    N98     N    0.74992   0.40253   0.24990   1.000
    N99     N    0.74992   0.40253   0.74998   1.000
    N100    N    0.74996   0.90243   0.24990   1.000
    N101    N    0.74996   0.90243   0.74997   1.000
    N102    N    0.25014   0.09805   0.24950   1.000
    N103    N    0.25005   0.59794   0.25045   1.000
    N104    N    0.75002   0.09759   0.20000   1.000
    N105    N    0.75001   0.09759   0.74998   1.000
    N106    N    0.74997   0.59749   0.24998   1.000
    N107    N    0.74996   0.59749   0.74998   1.000
    N108    N    0.09691   0.25037   0.24994   1.000
    N109    N    0.09691   0.25012   0.74998   1.000
    N110    N    0.09690   0.75013   0.25004   1.000
    N111    N    0.59689   0.25016   0.25001   1.000
    N112    N    0.59689   0.25012   0.74995   1.000
    N113    N    0.40310   0.25044   0.24997   1.000
    N114    N    0.40310   0.25020   0.74995   1.000
    N115    N    0.90310   0.25020   0.24997   1.000
    N116    N    0.90310   0.25016   0.74999   1.000
    N117    N    0.90310   0.74984   0.25000   1.000
    F118    F    0.25000   0.74931   0.11495   1.000
loop_
    _geom_bond_atom_site_label_1
    _geom_bond_atom_site_label_2
    _geom_bond_distance
    _geom_bond_site_symmetry_2
    _ccdc_geom_bond_type
    H35    C80       1.08880      .   S
    H30    C75       1.08875      .   S
    H46    C91       1.08921      .   S
    H33    C78       1.08875      .   S
    H37    C82       1.08878      .   S
    H39    C84       1.08889      .   S
    H31    C76       1.08840      .   S
    H41    C86       1.08905      .   S
    H43    C88       1.08908      .   S
    H45    C90       1.08909      .   S
    H49    C94       1.08911      .   S
    H48    C93       1.08913      .   S
    F118   Zn1       2.08620      .   S
    H29    C74       1.08922      .   S
    H36    C81       1.08877      .   S
    C80    C75       1.39245  1_545   S
    C80    N102      1.34862      .   S
    C75    N97       1.34879      .   S
    C76    C84       1.39227      .   S
    C76    N98       1.34797      .   S
    C84    N106      1.34855      .   S
    C91    C88       1.39370  1_455   S
    C91    N108      1.34893      .   S
    C78    C82       1.39237  1_565   S
    C78    N100      1.34769      .   S
    C88    N115      1.34886      .   S
    C82    N104      0.79656      .   S
    C86    C94       1.39339      .   S
    C86    N113      1.34892      .   S
    C94    N111      1.34883      .   S
    C90    C93       1.39369  1_655   S
    C90    N117      1.34892      .   S
    C93    N110      1.34895      .   S
    C74    C81       1.39217      .   S
    C74    N96       1.34862      .   S
    C81    N103      1.34865      .   S
    N104   Zn2       2.31860      .   S
    N102   Zn19      2.18318      .   S
    N102   C57       1.34881      .   S
    N97    Zn1       2.18814      .   S
    N97    C52       1.34881      .   S
    N100   Zn4       2.18618      .   S
    N100   C55       1.34990      .   S
    N98    Zn2       2.17578      .   S
    N98    C53       1.34974      .   S
    N108   Zn19      2.20727      .   S
    N108   C63       1.34887      .   S
    Zn19   N113      2.20741      .   S
    Zn19   N96       2.17831      .   S
    N115   Zn2       2.20757      .   S
    N115   C71       1.34893      .   S
    N113   C69       1.34898      .   S
    Zn4    N106      2.17561      .   S
    Zn4    N117      2.20753      .   S
    N106   C61       1.34864      .   S
    N117   C73       1.34882      .   S
    Zn2    N111      2.20740      .   S
    N111   C67       1.34892      .   S
    N110   Zn1       2.20738      .   S
    N110   C65       1.34880      .   S
    Zn1    N103      2.17400      .   S
    Zn1    F66       1.85226      .   S
    N96    C51       1.34881      .   S
    N103   C58       1.34866      .   S
    C57    C52       1.39205  1_545   S
    C57    H12       1.08872      .   S
    C52    H7        1.08854      .   S
    C63    C71       1.39366  1_455   S
    C63    H18       1.08910      .   S
    C71    H26       1.08909      .   S
    C69    C67       1.39337      .   S
    C69    H24       1.08909      .   S
    C73    C65       1.39367  1_655   S
    C73    H28       1.08912      .   S
    C67    H22       1.08908      .   S
    C55    C59       1.39237  1_565   S
    C55    H10       1.08878      .   S
    C59    H14       1.08875      .   S
    C65    H21       1.08867      .   S
    C53    C61       1.39225      .   S
    C53    H8        1.08877      .   S
    C61    H16       1.08881      .   S
    C51    C58       1.39255      .   S
    C51    H6        1.08875      .   S
    C58    H13       1.08901      .   S
    H42    C87       1.08966      .   S
    H34    C79       1.08902      .   S
    H38    C83       1.08865      .   S
    H32    C77       1.08879      .   S
    H50    C95       1.08825      .   S
    H40    C85       1.08839      .   S
    H47    C92       1.08912      .   S
    H44    C89       1.08905      .   S
    C85    C77       1.39225      .   S
    C85    N107      1.34906      .   S
    C95    C87       1.39334      .   S
    C95    N112      1.34971      .   S
    C77    N99       1.34866      .   S
    C87    N114      1.34899      .   S
    C79    C83       1.39237  1_565   S
    C79    N101      1.34874      .   S
    C83    N105      1.34883      .   S
    C92    C89       1.39364  1_455   S
    C92    N109      1.34888      .   S
    C89    N116      1.34893      .   S
    Zn0    N114      2.20739      .   S
    Zn0    N109      2.20726      .   S
    N114   C70       1.34892      .   S
    N112   Zn3       2.20744      .   S
    N112   C68       1.34883      .   S
    Zn5    N101      2.18617      .   S
    Zn5    N107      2.17565      .   S
    N101   C56       1.34884      .   S
    N99    Zn3       2.17571      .   S
    N99    C54       1.34865      .   S
    N109   C64       1.34892      .   S
    N107   C62       1.34866      .   S
    N105   Zn3       2.18614      .   S
    N105   C60       1.34769      .   S
    Zn3    N116      2.20757      .   S
    N116   C72       1.34885      .   S
    C60    C56       1.39235  1_545   S
    C60    H15       1.08996      .   S
    C68    C70       1.39340      .   S
    C68    H23       1.08915      .   S
    C70    H25       1.08916      .   S
    C72    C64       1.39372  1_655   S
    C72    H27       1.08912      .   S
    C64    H20       1.08917      .   S
    C56    H11       1.08839      .   S
    C54    C62       1.39227      .   S
    C54    H9        1.08879      .   S
    C62    H17       1.08891      .   S
