# CIF file generated by openbabel 2.4.90, see http://openbabel.sf.net
data_I
_chemical_name_common ''
_cell_length_a 14.418
_cell_length_b 14.304
_cell_length_c 15.436
_cell_angle_alpha 89.978
_cell_angle_beta 90
_cell_angle_gamma 89.985
_space_group_name_H-M_alt 'P 1'
_space_group_name_Hall 'P 1'
loop_
    _symmetry_equiv_pos_as_xyz
    x,y,z
loop_
    _atom_site_label
    _atom_site_type_symbol
    _atom_site_fract_x
    _atom_site_fract_y
    _atom_site_fract_z
    _atom_site_occupancy
    Zr0     Zr   0.25000   0.25067   0.24996   1.000
    Zr1     Zr   0.25000   0.25053   0.74985   1.000
    Zr2     Zr   0.25000   0.74993   0.25010   1.000
    Zr3     Zr   0.25000   0.74967   0.75005   1.000
    Zr4     Zr   0.74999   0.25042   0.25000   1.000
    Zr5     Zr   0.74999   0.25043   0.74999   1.000
    Zr6     Zr   0.74999   0.74959   0.24997   1.000
    Zr7     Zr   0.74999   0.74959   0.74997   1.000
    Zr8     Zr   0.25000   0.75054   0.80000   1.000
    Zr9     Zr   0.25000   0.74931   0.11495   1.000
    Zr10    Zr   0.16739   0.66683   0.20000   1.000
    O11     O    0.25000   0.74962   0.18253   1.000
    O12     O    0.20870   0.70838   0.22505   1.000
    O13     O    0.25000   0.75011   0.77502   1.000
    N14     N    0.24997   0.50046   0.25042   1.000
    O15     O    0.24997   0.41364   0.25029   1.000
    O16     O    0.25000   0.58720   0.25035   1.000
    N17     N    0.00000   0.25012   0.74999   1.000
    O18     O    0.91327   0.25021   0.74999   1.000
    O19     O    0.08673   0.25022   0.74995   1.000
    N20     N    0.50000   0.25031   0.24999   1.000
    O21     O    0.58672   0.25030   0.25000   1.000
    O22     O    0.41328   0.25043   0.24998   1.000
    N23     N    0.74999   0.75034   0.49998   1.000
    N24     N    0.00000   0.74996   0.25001   1.000
    O25     O    0.91327   0.74984   0.25000   1.000
    O26     O    0.08673   0.74999   0.25004   1.000
    N27     N    0.24996   0.50015   0.74984   1.000
    O28     O    0.24996   0.41337   0.74984   1.000
    N29     N    1.00000   0.74988   0.74994   1.000
    O30     O    0.91327   0.74979   0.74996   1.000
    N31     N    0.50000   0.25017   0.74994   1.000
    O32     O    0.58672   0.25022   0.74996   1.000
    O33     O    0.41327   0.25027   0.74992   1.000
    N34     N    0.25000   0.75102   0.49999   1.000
    N35     N    0.25012   0.00048   0.24955   1.000
    O36     O    0.25009   0.08742   0.24964   1.000
    O37     O    0.25006   0.91345   0.24970   1.000
    N38     N    0.74998   0.00001   0.24498   1.000
    O39     O    0.74997   0.91301   0.24746   1.000
    O40     O    0.74999   0.08701   0.23499   1.000
    N41     N    0.74998   0.24969   0.99999   1.000
    N42     N    0.74999   0.24968   0.49997   1.000
    N43     N    0.74993   0.50001   0.74998   1.000
    O44     O    0.74994   0.41324   0.74998   1.000
    O45     O    0.74995   0.58678   0.74998   1.000
    N46     N    0.25011   0.00015   0.75012   1.000
    O47     O    0.25009   0.08714   0.75005   1.000
    N48     N    0.24999   0.24969   0.49996   1.000
    N49     N    0.74997   0.00001   0.74996   1.000
    O50     O    0.74997   0.91301   0.74997   1.000
    O51     O    0.74999   0.08701   0.74997   1.000
    N52     N    0.50000   0.75007   0.25001   1.000
    O53     O    0.58672   0.74993   0.24999   1.000
    N54     N    0.50000   0.75000   0.74999   1.000
    O55     O    0.58672   0.74989   0.74999   1.000
    N56     N    0.74994   0.50001   0.24997   1.000
    O57     O    0.74996   0.58678   0.24997   1.000
    O58     O    0.74995   0.41324   0.24996   1.000
    N59     N    0.00000   0.25026   0.24995   1.000
    O60     O    0.08673   0.25039   0.24995   1.000
    O61     O    0.91327   0.25029   0.24997   1.000
    N62     N    0.25000   0.25102   0.99997   1.000
    N63     N    0.74999   0.75034   0.99999   1.000
    N64     N    0.33230   0.83479   0.99999   1.000
    N65     N    0.25000   0.74931   0.88500   1.000
    O66     O    0.25000   0.74962   0.86375   1.000
    N67     N    0.16769   0.83479   0.99999   1.000
    N68     N    0.33262   0.66683   0.99998   1.000
loop_
    _geom_bond_atom_site_label_1
    _geom_bond_atom_site_label_2
    _geom_bond_distance
    _geom_bond_site_symmetry_2
    _ccdc_geom_bond_type
    Zr9    O11       1.04310      .   S
    Zr2    O11       1.04310      .   S
    Zr2    O12       0.92613      .   S
    Zr10   O12       0.92613      .   S
    Zr3    O13       0.38557      .   S
    Zr8    O13       0.38557      .   S
    N14    O15       1.24190      .   S
    Zr0    O15       2.33105      .   S
    N14    O16       1.24070      .   S
    Zr2    O16       2.32770      .   S
    N17    O18       1.25046  1_455   S
    Zr5    O18       2.35425      .   S
    N17    O19       1.25042      .   S
    Zr1    O19       2.35405      .   S
    N20    O21       1.25033      .   S
    Zr4    O21       2.35403      .   S
    N20    O22       1.25038      .   S
    Zr0    O22       2.35408      .   S
    N24    O25       1.25045  1_455   S
    Zr6    O25       2.35422      .   S
    N24    O26       1.25042      .   S
    Zr2    O26       2.35411      .   S
    N27    O28       1.24126      .   S
    Zr1    O28       2.32924      .   S
    N29    O30       1.25044      .   S
    Zr7    O30       2.35418      .   S
    N31    O32       1.25034      .   S
    Zr5    O32       2.35406      .   S
    N31    O33       1.25037      .   S
    Zr1    O33       2.35406      .   S
    N35    O36       1.24361      .   S
    Zr0    O36       2.33520      .   S
    N35    O37       1.24491  1_545   S
    Zr2    O37       2.33898      .   S
    N38    O39       1.24503  1_545   S
    Zr6    O39       2.33785      .   S
    N38    O40       1.25388      .   S
    Zr4    O40       2.34901      .   S
    N43    O44       1.24111      .   S
    Zr5    O44       2.32896      .   S
    N43    O45       1.24110      .   S
    Zr7    O45       2.32892      .   S
    N46    O47       1.24429      .   S
    Zr1    O47       2.33717      .   S
    N49    O50       1.24445  1_545   S
    Zr7    O50       2.33753      .   S
    N49    O51       1.24444      .   S
    Zr5    O51       2.33750      .   S
    N52    O53       1.25035      .   S
    Zr6    O53       2.35408      .   S
    N54    O55       1.25034      .   S
    Zr7    O55       2.35406      .   S
    N56    O57       1.24109      .   S
    Zr6    O57       2.32889      .   S
    N56    O58       1.24112      .   S
    Zr4    O58       2.32901      .   S
    N59    O60       1.25042      .   S
    Zr0    O60       2.35406      .   S
    N59    O61       1.25046  1_455   S
    Zr4    O61       2.35425      .   S
    N65    O66       0.32804      .   S
    Zr8    O66       0.98413      .   S
