# CIF file generated by openbabel 2.4.90, see http://openbabel.sf.net
data_I
_chemical_name_common ''
_cell_length_a 14.418
_cell_length_b 14.304
_cell_length_c 15.436
_cell_angle_alpha 89.978
_cell_angle_beta 90
_cell_angle_gamma 89.985
_space_group_name_H-M_alt 'P 1'
_space_group_name_Hall 'P 1'
loop_
    _symmetry_equiv_pos_as_xyz
    x,y,z
loop_
    _atom_site_label
    _atom_site_type_symbol
    _atom_site_fract_x
    _atom_site_fract_y
    _atom_site_fract_z
    _atom_site_occupancy
    N0      N    0.24997   0.50046   0.25042   1.000
    N1      N    0.00000   0.25012   0.74999   1.000
    N2      N    0.50000   0.25031   0.24999   1.000
    N3      N    0.74999   0.75034   0.49998   1.000
    N4      N    0.00000   0.74996   0.25001   1.000
    N5      N    0.24996   0.50015   0.74984   1.000
    N6      N    1.00000   0.74988   0.74994   1.000
    N7      N    0.50000   0.25017   0.74994   1.000
    N8      N    0.25000   0.75102   0.49999   1.000
    N9      N    0.25012   0.00048   0.24955   1.000
    N10     N    0.74998   0.00001   0.24498   1.000
    N11     N    0.74998   0.24969   0.99999   1.000
    N12     N    0.74999   0.24968   0.49997   1.000
    N13     N    0.74993   0.50001   0.74998   1.000
    N14     N    0.25011   0.00015   0.75012   1.000
    N15     N    0.24999   0.24969   0.49996   1.000
    N16     N    0.74997   0.00001   0.74996   1.000
    N17     N    0.50000   0.75007   0.25001   1.000
    N18     N    0.50000   0.75000   0.74999   1.000
    N19     N    0.74994   0.50001   0.24997   1.000
    N20     N    0.00000   0.25026   0.24995   1.000
    N21     N    0.25000   0.25102   0.99997   1.000
    N22     N    0.74999   0.75034   0.99999   1.000
    N23     N    0.33230   0.83479   0.99999   1.000
    N24     N    0.25000   0.74931   0.88500   1.000
    N25     N    0.16769   0.83479   0.99999   1.000
    N26     N    0.33262   0.66683   0.99998   1.000
    Zr27    Zr   0.25000   0.75011   0.77502   1.000
    O28     O    0.25000   0.74986   0.81939   1.000
    Zr29    Zr   0.25000   0.25067   0.24996   1.000
    O30     O    0.16837   0.25053   0.24996   1.000
    O31     O    0.33164   0.25055   0.24997   1.000
    O32     O    0.24998   0.33216   0.25013   1.000
    O33     O    0.25005   0.16905   0.24980   1.000
    Zr34    Zr   0.25000   0.25053   0.74985   1.000
    O35     O    0.25005   0.16884   0.74995   1.000
    O36     O    0.33164   0.25040   0.74989   1.000
    O37     O    0.24998   0.33195   0.74985   1.000
    O38     O    0.16837   0.25038   0.74990   1.000
    Zr39    Zr   0.22247   0.72202   0.18835   1.000
    O40     O    0.23623   0.65461   0.21935   1.000
    O41     O    0.23626   0.81774   0.21902   1.000
    O42     O    0.15460   0.73601   0.21920   1.000
    Zr43    Zr   0.74999   0.74959   0.74997   1.000
    O44     O    0.74997   0.66818   0.74997   1.000
    O45     O    0.74998   0.83130   0.74997   1.000
    O46     O    0.83163   0.74969   0.74996   1.000
    O47     O    0.66835   0.74974   0.74998   1.000
    Zr48    Zr   0.74999   0.25043   0.74999   1.000
    O49     O    0.74997   0.33183   0.74999   1.000
    O50     O    0.83163   0.25032   0.74999   1.000
    O51     O    0.74999   0.16872   0.74998   1.000
    O52     O    0.66835   0.25032   0.74997   1.000
    Zr53    Zr   0.74999   0.74959   0.24997   1.000
    O54     O    0.74998   0.66818   0.24997   1.000
    O55     O    0.74998   0.83130   0.24871   1.000
    O56     O    0.83163   0.74971   0.24998   1.000
    O57     O    0.66835   0.74976   0.24998   1.000
    Zr58    Zr   0.74999   0.25042   0.25000   1.000
    O59     O    0.74999   0.16872   0.24250   1.000
    O60     O    0.66835   0.25036   0.25000   1.000
    O61     O    0.83163   0.25035   0.24998   1.000
    O62     O    0.74997   0.33183   0.24998   1.000
loop_
    _geom_bond_atom_site_label_1
    _geom_bond_atom_site_label_2
    _geom_bond_distance
    _geom_bond_site_symmetry_2
    _ccdc_geom_bond_type
    Zr27   O28       0.68479      .   S
    N24    O28       1.01282      .   S
    Zr29   O30       1.17703      .   S
    N20    O30       2.42745      .   S
    Zr29   O31       1.17704      .   S
    N2     O31       2.42742      .   S
    Zr29   O32       1.16553      .   S
    N0     O32       2.40742      .   S
    Zr29   O33       1.16760      .   S
    N9     O33       2.41121      .   S
    Zr34   O35       1.16858      .   S
    N14    O35       2.41288      .   S
    Zr34   O36       1.17703      .   S
    N7     O36       2.42740      .   S
    Zr34   O37       1.16462      .   S
    N5     O37       2.40588      .   S
    Zr34   O38       1.17702      .   S
    N1     O38       2.42744      .   S
    Zr39   O40       1.09440      .   S
    N0     O40       2.26496      .   S
    Zr39   O41       1.46243      .   S
    N9     O41       2.66381  1_545   S
    Zr39   O42       1.10645      .   S
    N4     O42       2.28784      .   S
    Zr43   O44       1.16446      .   S
    N13    O44       2.40556      .   S
    Zr43   O45       1.16876      .   S
    N16    O45       2.41321  1_545   S
    Zr43   O46       1.17709      .   S
    N6     O46       2.42753      .   S
    Zr43   O47       1.17703      .   S
    N18    O47       2.42737      .   S
    Zr48   O49       1.16448      .   S
    N13    O49       2.40559      .   S
    Zr48   O50       1.17712      .   S
    N1     O50       2.42759  1_455   S
    Zr48   O51       1.16875      .   S
    N16    O51       2.41319      .   S
    Zr48   O52       1.17703      .   S
    N7     O52       2.42737      .   S
    Zr53   O54       1.16445      .   S
    N19    O54       2.40553      .   S
    Zr53   O55       1.16893      .   S
    N10    O55       2.41389  1_545   S
    Zr53   O56       1.17711      .   S
    N4     O56       2.42756  1_455   S
    Zr53   O57       1.17704      .   S
    N17    O57       2.42739      .   S
    Zr58   O59       1.17450      .   S
    N10    O59       2.41345      .   S
    Zr58   O60       1.17701      .   S
    N2     O60       2.42734      .   S
    Zr58   O61       1.17712      .   S
    N20    O61       2.42759  1_455   S
    Zr58   O62       1.16451      .   S
    N19    O62       2.40563      .   S
