# CIF file generated by openbabel 2.4.90, see http://openbabel.sf.net
data_I
_chemical_name_common 'VESTA_phase_1'
_cell_length_a 17.924
_cell_length_b 17.979
_cell_length_c 13.775
_cell_angle_alpha 73.331
_cell_angle_beta 71.911
_cell_angle_gamma 81.632
_space_group_name_H-M_alt 'P 1'
_space_group_name_Hall 'P 1'
loop_
    _symmetry_equiv_pos_as_xyz
    x,y,z
loop_
    _atom_site_label
    _atom_site_type_symbol
    _atom_site_fract_x
    _atom_site_fract_y
    _atom_site_fract_z
    _atom_site_occupancy
    Zn0     Zn   0.25335   0.07812   0.15176   1.000
    Zn1     Zn   0.25335   0.57811   0.15176   1.000
    Zn2     Zn   0.75335   0.07812   0.15176   1.000
    Zn3     Zn   0.75335   0.57811   0.15176   1.000
    Zn4     Zn   0.19143   0.05334   0.37640   1.000
    Zn5     Zn   0.19143   0.55333   0.37640   1.000
    Zn6     Zn   0.69143   0.05334   0.37640   1.000
    Zn7     Zn   0.69142   0.55333   0.37640   1.000
    H8      H    0.43848   0.13290   0.62161   1.000
    H9      H    0.43848   0.63290   0.62161   1.000
    H10     H    0.93847   0.13290   0.62161   1.000
    H11     H    0.93847   0.63290   0.62161   1.000
    H12     H    0.04297   0.12590   0.45374   1.000
    H13     H    0.04298   0.62590   0.45374   1.000
    H14     H    0.54297   0.12590   0.45374   1.000
    H15     H    0.54297   0.62590   0.45374   1.000
    H16     H    0.26717   0.49692   0.97846   1.000
    H17     H    0.26716   0.99691   0.97846   1.000
    H18     H    0.76716   0.49692   0.97847   1.000
    H19     H    0.76716   0.99691   0.97847   1.000
    H20     H    0.36992   0.48001   0.81420   1.000
    H21     H    0.36991   0.97999   0.81420   1.000
    H22     H    0.86991   0.48000   0.81421   1.000
    H23     H    0.86990   0.97999   0.81421   1.000
    H24     H    0.50238   0.14754   0.85061   1.000
    H25     H    0.50238   0.64754   0.85061   1.000
    H26     H    0.00000   0.14754   0.85061   1.000
    H27     H    0.00000   0.64754   0.85061   1.000
    H28     H    0.39184   0.16025   0.00000   1.000
    H29     H    0.39184   0.66024   0.00000   1.000
    H30     H    0.89183   0.16025   0.00000   1.000
    H31     H    0.89183   0.66024   0.00000   1.000
    H32     H    0.04147   0.44321   0.88095   1.000
    H33     H    0.04147   0.94320   0.88095   1.000
    H34     H    0.54146   0.44322   0.88095   1.000
    H35     H    0.54146   0.94320   0.88095   1.000
    H36     H    0.13302   0.35914   0.78299   1.000
    H37     H    0.13302   0.85913   0.78299   1.000
    H38     H    0.63301   0.35914   0.78299   1.000
    H39     H    0.63301   0.85913   0.78299   1.000
    H40     H    0.25014   0.48102   0.73844   1.000
    H41     H    0.25013   0.98102   0.73844   1.000
    H42     H    0.75013   0.48102   0.73844   1.000
    H43     H    0.75013   0.98102   0.73844   1.000
    H44     H    0.27926   0.38834   0.71165   1.000
    H45     H    0.27926   0.88834   0.71165   1.000
    H46     H    0.77925   0.38834   0.71165   1.000
    H47     H    0.77925   0.88834   0.71160   1.000
    H48     H    0.20539   0.41319   0.58381   1.000
    H49     H    0.20540   0.91318   0.58381   1.000
    H50     H    0.70539   0.41319   0.58381   1.000
    H51     H    0.70539   0.91318   0.58381   1.000
    H52     H    0.25694   0.49634   0.55165   1.000
    H53     H    0.25693   0.99634   0.55165   1.000
    H54     H    0.75693   0.49634   0.55165   1.000
    H55     H    0.75693   0.99634   0.55160   1.000
    H56     H    0.13116   0.45423   0.00804   1.000
    H57     H    0.13115   0.95423   0.00804   1.000
    H58     H    0.63115   0.45424   0.00804   1.000
    H59     H    0.63115   0.95423   0.00804   1.000
    H60     H    0.11603   0.05727   0.99341   1.000
    H61     H    0.11603   0.55726   0.99341   1.000
    H62     H    0.61603   0.05727   0.99341   1.000
    H63     H    0.61603   0.55726   0.99341   1.000
    H64     H    0.03574   0.00138   0.00000   1.000
    H65     H    0.03574   0.50137   0.00000   1.000
    H66     H    0.53574   0.00138   0.00000   1.000
    H67     H    0.53574   0.50137   0.00000   1.000
    H68     H    0.17202   0.24986   0.89880   1.000
    H69     H    0.17202   0.74985   0.89880   1.000
    H70     H    0.67201   0.24986   0.89880   1.000
    H71     H    0.67201   0.74985   0.89880   1.000
    H72     H    0.26826   0.28634   0.85259   1.000
    H73     H    0.26826   0.78634   0.85250   1.000
    H74     H    0.76825   0.28634   0.85259   1.000
    H75     H    0.76825   0.78634   0.85259   1.000
    H76     H    0.21734   0.26388   0.99073   1.000
    H77     H    0.21734   0.76387   0.99073   1.000
    H78     H    0.71733   0.26388   0.99073   1.000
    H79     H    0.71733   0.76387   0.99073   1.000
    H80     H    0.44875   0.04073   0.38306   1.000
    H81     H    0.44875   0.54073   0.38306   1.000
    H82     H    0.94875   0.04074   0.38300   1.000
    H83     H    0.94875   0.54072   0.38300   1.000
    H84     H    0.49783   0.09310   0.13984   1.000
    H85     H    0.49783   0.59309   0.13980   1.000
    H86     H    0.99782   0.09310   0.13983   1.000
    H87     H    0.99782   0.59309   0.13984   1.000
    H88     H    0.24375   0.33768   0.14129   1.000
    H89     H    0.24374   0.83767   0.14130   1.000
    H90     H    0.74374   0.33768   0.14100   1.000
    H91     H    0.74373   0.83767   0.14130   1.000
    H92     H    0.19863   0.29544   0.38450   1.000
    H93     H    0.19864   0.79542   0.38457   1.000
    H94     H    0.69864   0.29544   0.38450   1.000
    H95     H    0.69862   0.79542   0.38457   1.000
    C96     C    0.13346   0.01076   0.62174   1.000
    C97     C    0.13346   0.51074   0.62174   1.000
    C98     C    0.63346   0.01076   0.62174   1.000
    C99     C    0.63345   0.51074   0.62174   1.000
    C100    C    0.07827   0.01201   0.71976   1.000
    C101    C    0.07827   0.51200   0.71976   1.000
    C102    C    0.57827   0.01201   0.71976   1.000
    C103    C    0.57827   0.51200   0.71976   1.000
    C104    C    0.00679   0.05656   0.72018   1.000
    C105    C    0.00680   0.55656   0.72018   1.000
    C106    C    0.50679   0.05656   0.72018   1.000
    C107    C    0.50679   0.55656   0.72018   1.000
    C108    C    0.49316   0.09787   0.62391   1.000
    C109    C    0.49316   0.59787   0.62391   1.000
    C110    C    0.99315   0.09787   0.62391   1.000
    C111    C    0.99316   0.59787   0.62391   1.000
    C112    C    0.05071   0.09449   0.53063   1.000
    C113    C    0.05072   0.59449   0.53063   1.000
    C114    C    0.55071   0.09449   0.53063   1.000
    C115    C    0.55071   0.59449   0.53063   1.000
    C116    C    0.31958   0.03004   0.94649   1.000
    C117    C    0.31958   0.53003   0.94649   1.000
    C118    C    0.81958   0.03004   0.94649   1.000
    C119    C    0.81958   0.53003   0.94649   1.000
    C120    C    0.37743   0.02048   0.85562   1.000
    C121    C    0.37743   0.52047   0.85562   1.000
    C122    C    0.87742   0.02048   0.85562   1.000
    C123    C    0.87743   0.52047   0.85562   1.000
    C124    C    0.44487   0.06274   0.81919   1.000
    C125    C    0.44488   0.56273   0.81919   1.000
    C126    C    0.94487   0.06274   0.81919   1.000
    C127    C    0.94487   0.56273   0.81919   1.000
    C128    C    0.45059   0.11419   0.87570   1.000
    C129    C    0.45059   0.61418   0.87570   1.000
    C130    C    0.95058   0.11419   0.87570   1.000
    C131    C    0.95058   0.61418   0.87570   1.000
    C132    C    0.38990   0.12129   0.96491   1.000
    C133    C    0.38989   0.62128   0.96491   1.000
    C134    C    0.88989   0.12129   0.96491   1.000
    C135    C    0.88989   0.62128   0.96491   1.000
    C136    C    0.09577   0.46817   0.82322   1.000
    C137    C    0.09576   0.96816   0.82322   1.000
    C138    C    0.59576   0.46817   0.82322   1.000
    C139    C    0.59576   0.96816   0.82322   1.000
    C140    C    0.15864   0.40140   0.80690   1.000
    C141    C    0.15863   0.90140   0.80693   1.000
    C142    C    0.65863   0.40140   0.80693   1.000
    C143    C    0.65863   0.90140   0.80693   1.000
    C144    C    0.23081   0.43337   0.71830   1.000
    C145    C    0.23080   0.93336   0.71830   1.000
    C146    C    0.73080   0.43337   0.71830   1.000
    C147    C    0.73080   0.93336   0.71837   1.000
    C148    C    0.21007   0.46266   0.61367   1.000
    C149    C    0.21007   0.96265   0.61367   1.000
    C150    C    0.71007   0.46266   0.61367   1.000
    C151    C    0.71007   0.96266   0.61367   1.000
    C152    C    0.09952   0.00772   0.97480   1.000
    C153    C    0.09952   0.50770   0.97487   1.000
    C154    C    0.59951   0.00772   0.97480   1.000
    C155    C    0.59951   0.50770   0.97487   1.000
    C156    C    0.21008   0.28728   0.91124   1.000
    C157    C    0.21009   0.78728   0.91124   1.000
    C158    C    0.71008   0.28728   0.91124   1.000
    C159    C    0.71008   0.78728   0.91124   1.000
    C160    C    0.36162   0.05609   0.29438   1.000
    C161    C    0.36162   0.55609   0.29438   1.000
    C162    C    0.86161   0.05610   0.29438   1.000
    C163    C    0.86161   0.55608   0.29438   1.000
    C164    C    0.44215   0.05646   0.30340   1.000
    C165    C    0.44215   0.55645   0.30347   1.000
    C166    C    0.94214   0.05647   0.30340   1.000
    C167    C    0.94214   0.55645   0.30340   1.000
    C168    C    0.00449   0.07700   0.21936   1.000
    C169    C    0.00448   0.57699   0.21936   1.000
    C170    C    0.50448   0.07700   0.21936   1.000
    C171    C    0.50447   0.57699   0.21936   1.000
    C172    C    0.08494   0.07771   0.22800   1.000
    C173    C    0.08494   0.57769   0.22850   1.000
    C174    C    0.58493   0.07770   0.22850   1.000
    C175    C    0.58493   0.57770   0.22850   1.000
    C176    C    0.22262   0.21664   0.23445   1.000
    C177    C    0.22262   0.71663   0.23445   1.000
    C178    C    0.72261   0.21664   0.23445   1.000
    C179    C    0.72261   0.71663   0.23445   1.000
    C180    C    0.22707   0.30106   0.22196   1.000
    C181    C    0.22707   0.80104   0.22196   1.000
    C182    C    0.72707   0.30105   0.22196   1.000
    C183    C    0.72706   0.80104   0.22196   1.000
    C184    C    0.21450   0.33202   0.30383   1.000
    C185    C    0.21450   0.83201   0.30384   1.000
    C186    C    0.71449   0.33202   0.30380   1.000
    C187    C    0.71449   0.83201   0.30380   1.000
    C188    C    0.22070   0.41628   0.29066   1.000
    C189    C    0.22071   0.91627   0.29066   1.000
    C190    C    0.72071   0.41628   0.29066   1.000
    C191    C    0.72069   0.91627   0.29060   1.000
    N192    N    0.11908   0.05172   0.52922   1.000
    N193    N    0.11908   0.55171   0.52922   1.000
    N194    N    0.61907   0.05172   0.52922   1.000
    N195    N    0.61907   0.55171   0.52922   1.000
    N196    N    0.32548   0.07973   0.00000   1.000
    N197    N    0.32548   0.57972   0.00000   1.000
    N198    N    0.82547   0.07973   0.00000   1.000
    N199    N    0.82547   0.57972   0.00000   1.000
    O200    O    0.11946   0.02477   0.86142   1.000
    O201    O    0.11947   0.52476   0.86140   1.000
    O202    O    0.61946   0.02477   0.86142   1.000
    O203    O    0.61946   0.52476   0.86140   1.000
    O204    O    0.17490   0.36450   0.90531   1.000
    O205    O    0.17491   0.86449   0.90531   1.000
    O206    O    0.67490   0.36450   0.90531   1.000
    O207    O    0.67490   0.86449   0.90531   1.000
    O208    O    0.30571   0.05287   0.37975   1.000
    O209    O    0.30570   0.55285   0.37975   1.000
    O210    O    0.80570   0.05287   0.37975   1.000
    O211    O    0.80570   0.55285   0.37975   1.000
    O212    O    0.35419   0.05956   0.20442   1.000
    O213    O    0.35418   0.55955   0.20442   1.000
    O214    O    0.85418   0.05956   0.20442   1.000
    O215    O    0.85418   0.55955   0.20442   1.000
    O216    O    0.09370   0.05953   0.32070   1.000
    O217    O    0.09370   0.55952   0.32078   1.000
    O218    O    0.59369   0.05953   0.32078   1.000
    O219    O    0.59369   0.55952   0.32078   1.000
    O220    O    0.13939   0.09573   0.14154   1.000
    O221    O    0.13939   0.59572   0.14154   1.000
    O222    O    0.63939   0.09573   0.14154   1.000
    O223    O    0.63938   0.59572   0.14154   1.000
    O224    O    0.19054   0.17447   0.32567   1.000
    O225    O    0.19054   0.67446   0.32567   1.000
    O226    O    0.69053   0.17447   0.32567   1.000
    O227    O    0.69053   0.67446   0.32567   1.000
    O228    O    0.25302   0.19347   0.15001   1.000
    O229    O    0.25302   0.69346   0.15001   1.000
    O230    O    0.75301   0.19347   0.15001   1.000
    O231    O    0.75301   0.69346   0.15001   1.000
    O232    O    0.20664   0.43742   0.37590   1.000
    O233    O    0.20663   0.93741   0.37598   1.000
    O234    O    0.70663   0.43742   0.37598   1.000
    O235    O    0.70663   0.93741   0.37598   1.000
    O236    O    0.23853   0.46034   0.19707   1.000
    O237    O    0.23853   0.96033   0.19707   1.000
    O238    O    0.73852   0.46034   0.19707   1.000
    O239    O    0.73852   0.96033   0.19707   1.000
loop_
    _geom_bond_atom_site_label_1
    _geom_bond_atom_site_label_2
    _geom_bond_distance
    _geom_bond_site_symmetry_2
    _ccdc_geom_bond_type
    N196   Zn0       2.08331      .   S
    N196   C116      1.34392  1_554   S
    N196   C132      1.34997  1_554   S
    N197   Zn1       2.08331      .   S
    N197   C117      1.34391  1_554   S
    N197   C133      1.34998  1_554   S
    N198   Zn2       2.08331      .   S
    N198   C118      1.34394  1_554   S
    N198   C134      1.34998  1_554   S
    N199   Zn3       2.08331      .   S
    N199   C119      1.34396  1_554   S
    N199   C135      1.34997  1_554   S
    H64    C152      1.09958  1_554   S
    H65    C153      1.09962  1_554   S
    H66    C154      1.09958  1_554   S
    H67    C155      1.09961  1_554   S
    H31    C135      0.96812  1_554   S
    H30    C134      0.96813  1_554   S
    H29    C133      0.96810  1_554   S
    H28    C132      0.96809  1_554   S
    H56    C153      1.09760  1_554   S
    H59    C154      1.09816  1_564   S
    H58    C155      1.09761  1_554   S
    H57    C152      1.09817  1_564   S
    H85    C171      1.09003      .   S
    H86    C168      1.08973  1_655   S
    H84    C170      1.08951      .   S
    H87    C169      1.08961  1_655   S
    H90    C182      1.09347      .   S
    H88    C180      1.09042      .   S
    H91    C183      1.09032      .   S
    H89    C181      1.09032      .   S
    O220   Zn0       2.06328      .   S
    O220   C172      1.27471      .   S
    O221   Zn1       2.06330      .   S
    O221   C173      1.27901      .   S
    O222   Zn2       2.06330      .   S
    O222   C174      1.27902      .   S
    O223   Zn3       2.06330      .   S
    O223   C175      1.27902      .   S
    O228   Zn0       2.06630      .   S
    O228   C176      1.28127      .   S
    O229   Zn1       2.06630      .   S
    O229   C177      1.28126      .   S
    O230   Zn2       2.06630      .   S
    O230   C178      1.28126      .   S
    O231   Zn3       2.06630      .   S
    O231   C179      1.28127      .   S
    Zn1    O236      2.06053      .   S
    Zn1    O213      2.09844      .   S
    Zn2    O239      2.06095  1_545   S
    Zn2    O214      2.09844      .   S
    Zn3    O238      2.06053      .   S
    Zn3    O215      2.09844      .   S
    Zn0    O237      2.06094  1_545   S
    Zn0    O212      2.09845      .   S
    O238   C190      1.27425      .   S
    O237   C189      1.27425      .   S
    O236   C188      1.27425      .   S
    O239   C191      1.27362      .   S
    O212   C160      1.27005      .   S
    O213   C161      1.27008      .   S
    O214   C162      1.27008      .   S
    O215   C163      1.27005      .   S
    C169   C173      1.48815      .   S
    C169   C167      1.34041  1_455   S
    C171   C175      1.48816      .   S
    C171   C165      1.34076      .   S
    C170   C174      1.48815      .   S
    C170   C164      1.34026      .   S
    C168   C172      1.48551      .   S
    C168   C166      1.34041  1_455   S
    C180   C176      1.48870      .   S
    C180   C184      1.34110      .   S
    C181   C177      1.48868      .   S
    C181   C185      1.34122      .   S
    C182   C178      1.48870      .   S
    C182   C186      1.34072      .   S
    C183   C179      1.48870      .   S
    C183   C187      1.34072      .   S
    C172   O216      1.27757      .   S
    C173   O217      1.27199      .   S
    C174   O218      1.27199      .   S
    C175   O219      1.27199      .   S
    C179   O227      1.27122      .   S
    C178   O226      1.27123      .   S
    C177   O225      1.27123      .   S
    C176   O224      1.27122      .   S
    C191   C187      1.48951      .   S
    C191   O235      1.27891      .   S
    C188   C184      1.48959      .   S
    C188   O232      1.27709      .   S
    C190   C186      1.48967      .   S
    C190   O234      1.27812      .   S
    C189   C185      1.48956      .   S
    C189   O233      1.27812      .   S
    C163   C167      1.48781      .   S
    C163   O211      1.27929      .   S
    C162   C166      1.48781      .   S
    C162   O210      1.27928      .   S
    C161   C165      1.48817      .   S
    C161   O209      1.27929      .   S
    C160   C164      1.48781      .   S
    C160   O208      1.27930      .   S
    C167   H83       1.09053      .   S
    C166   H82       1.09053      .   S
    C164   H80       1.09133      .   S
    C165   H81       1.09040      .   S
    C186   H94       1.08994      .   S
    C187   H95       1.09067      .   S
    C184   H92       1.08961      .   S
    C185   H93       1.09025      .   S
    O216   Zn4       2.09728      .   S
    O219   Zn7       2.09662      .   S
    O217   Zn5       2.09662      .   S
    O218   Zn6       2.09662      .   S
    O224   Zn4       2.08696      .   S
    O225   Zn5       2.08696      .   S
    O226   Zn6       2.08696      .   S
    O227   Zn7       2.08696      .   S
    O232   Zn5       2.06371      .   S
    O233   Zn4       2.06387  1_565   S
    O235   Zn6       2.06387  1_565   S
    O234   Zn7       2.06344      .   S
    Zn4    O208      2.06179      .   S
    Zn4    N192      2.09635      .   S
    Zn5    O209      2.06177      .   S
    Zn5    N193      2.09635      .   S
    Zn6    O210      2.06179      .   S
    Zn6    N194      2.09635      .   S
    Zn7    O211      2.06179      .   S
    Zn7    N195      2.09635      .   S
    H14    C114      1.08872      .   S
    H15    C115      1.08872      .   S
    H13    C113      1.08873      .   S
    H12    C112      1.08873      .   S
    N194   C114      1.34638      .   S
    N194   C98       1.35775      .   S
    N192   C112      1.34637      .   S
    N192   C96       1.35775      .   S
    N195   C115      1.34638      .   S
    N195   C99       1.35775      .   S
    N193   C113      1.34637      .   S
    N193   C97       1.35775      .   S
    C112   C110      1.38652  1_455   S
    C113   C111      1.38652  1_455   S
    C114   C108      1.38640      .   S
    C115   C109      1.38640      .   S
    H55    C151      1.09923      .   S
    H53    C149      1.09894      .   S
    H54    C150      1.09895      .   S
    H52    C148      1.09895      .   S
    H48    C148      1.10470      .   S
    H49    C149      1.10469      .   S
    H50    C150      1.10468      .   S
    H51    C151      1.10467      .   S
    C149   C96       1.50351  1_565   S
    C149   C145      1.52737      .   S
    C151   C98       1.50351  1_565   S
    C151   C147      1.52825      .   S
    C150   C99       1.50340      .   S
    C150   C146      1.52737      .   S
    C148   C97       1.50340      .   S
    C148   C144      1.52738      .   S
    H11    C111      1.08931      .   S
    H10    C110      1.08930      .   S
    H9     C109      1.08930      .   S
    H8     C108      1.08929      .   S
    C97    C101      1.40843      .   S
    C96    C100      1.40844      .   S
    C98    C102      1.40844      .   S
    C99    C103      1.40843      .   S
    C111   C105      1.39763  1_655   S
    C110   C104      1.39764  1_655   S
    C109   C107      1.39753      .   S
    C108   C106      1.39753      .   S
    H47    C147      1.09851      .   S
    H44    C144      1.09842      .   S
    H45    C145      1.09843      .   S
    H46    C146      1.09843      .   S
    C144   H40       1.10158      .   S
    C144   C140      1.52537      .   S
    C145   H41       1.10157      .   S
    C145   C141      1.52555      .   S
    C146   H42       1.10158      .   S
    C146   C142      1.52554      .   S
    C147   H43       1.10103      .   S
    C147   C143      1.52513      .   S
    C101   C105      1.40802      .   S
    C101   C136      1.52042      .   S
    C103   C107      1.40802      .   S
    C103   C138      1.52041      .   S
    C102   C106      1.40801      .   S
    C102   C139      1.52047  1_545   S
    C100   C104      1.40801      .   S
    C100   C137      1.52048  1_545   S
    C106   C124      1.48831      .   S
    C107   C125      1.48832      .   S
    C105   C127      1.48843  1_455   S
    C104   C126      1.48843  1_455   S
    H39    C143      1.11182      .   S
    H38    C142      1.11184      .   S
    H37    C141      1.11181      .   S
    H36    C140      1.11158      .   S
    C140   C136      1.53787      .   S
    C140   O204      1.42691      .   S
    C142   C138      1.53780      .   S
    C142   O206      1.42655      .   S
    C141   C137      1.53779      .   S
    C141   O205      1.42655      .   S
    C143   C139      1.53780      .   S
    C143   O207      1.42655      .   S
    H20    C121      1.08966      .   S
    H21    C120      1.09006  1_565   S
    H22    C123      1.08960      .   S
    H23    C122      1.08998  1_565   S
    C125   C121      1.40084      .   S
    C125   C129      1.40078      .   S
    C126   C122      1.40081      .   S
    C126   C130      1.40084      .   S
    C127   C123      1.40082      .   S
    C127   C131      1.40082      .   S
    C124   C120      1.40083      .   S
    C124   C128      1.40078      .   S
    C136   O201      1.43656      .   S
    C136   H32       1.10571      .   S
    C137   O200      1.43714  1_565   S
    C137   H33       1.10572      .   S
    C138   O203      1.43656      .   S
    C138   H34       1.10572      .   S
    C139   O202      1.43715  1_565   S
    C139   H35       1.10572      .   S
    H24    C128      1.08843      .   S
    H25    C129      1.08843      .   S
    H26    C130      1.05326  1_455   S
    H27    C131      1.05332  1_455   S
    H73    C157      1.10504      .   S
    H75    C159      1.10448      .   S
    H74    C158      1.10449      .   S
    H72    C156      1.10449      .   S
    C123   C119      1.39180      .   S
    C120   C116      1.39180      .   S
    C121   C117      1.39180      .   S
    C122   C118      1.39180      .   S
    O201   C153      1.44045      .   S
    O203   C155      1.44045      .   S
    O200   C152      1.43928      .   S
    O202   C154      1.43928      .   S
    C129   C133      1.38897      .   S
    C130   C134      1.38896      .   S
    C131   C135      1.38896      .   S
    C128   C132      1.38897      .   S
    H69    C157      1.10462      .   S
    H71    C159      1.10462      .   S
    H70    C158      1.10461      .   S
    H68    C156      1.10462      .   S
    O205   C157      1.42959      .   S
    O206   C158      1.42959      .   S
    O207   C159      1.42958      .   S
    O204   C156      1.42958      .   S
    C158   H78       1.09597      .   S
    C157   H77       1.09596      .   S
    C159   H79       1.09597      .   S
    C156   H76       1.09597      .   S
    C119   H18       1.08922      .   S
    C116   H17       1.08953  1_545   S
    C117   H16       1.08923      .   S
    C118   H19       1.08953  1_545   S
    C152   H60       1.09636      .   S
    C154   H62       1.09639      .   S
    C153   H61       1.09584      .   S
    C155   H63       1.09586      .   S
    Zn0    Zn4       2.86810      .   S
    Zn1    Zn5       2.86810      .   S
    Zn2    Zn6       2.86810      .   S
    Zn3    Zn7       2.86810      .   S
