# CIF file generated by openbabel 2.4.90, see http://openbabel.sf.net
data_I
_chemical_name_common ''
_cell_length_a 18.28
_cell_length_b 14.29
_cell_length_c 15.324
_cell_angle_alpha 89.443
_cell_angle_beta 90.195
_cell_angle_gamma 107.341
_space_group_name_H-M_alt 'P 1'
_space_group_name_Hall 'P 1'
loop_
    _symmetry_equiv_pos_as_xyz
    x,y,z
loop_
    _atom_site_label
    _atom_site_type_symbol
    _atom_site_fract_x
    _atom_site_fract_y
    _atom_site_fract_z
    _atom_site_occupancy
    Zr0     Zr   0.14612   0.33725   0.34101   1.000
    Zr1     Zr   0.64612   0.33725   0.34101   1.000
    Zr2     Zr   0.08813   0.13547   0.22600   1.000
    Zr3     Zr   0.58813   0.13547   0.22600   1.000
    Zr4     Zr   0.10390   0.16078   0.84099   1.000
    Zr5     Zr   0.60391   0.16078   0.84099   1.000
    Zr6     Zr   0.16198   0.36571   0.72596   1.000
    Zr7     Zr   0.66198   0.36571   0.72596   1.000
    Zr8     Zr   0.35387   0.66275   0.65900   1.000
    Zr9     Zr   0.85387   0.66275   0.65900   1.000
    Zr10    Zr   0.41186   0.86453   0.77401   1.000
    Zr11    Zr   0.91186   0.86453   0.77401   1.000
    Zr12    Zr   0.39608   0.83922   0.15902   1.000
    Zr13    Zr   0.89608   0.83922   0.15902   1.000
    Zr14    Zr   0.33801   0.63430   0.27400   1.000
    Zr15    Zr   0.83801   0.63430   0.27400   1.000
    N16     N    0.10282   0.77844   0.21430   1.000
    O17     O    0.10030   0.92512   0.22199   1.000
    O18     O    0.99363   0.73263   0.23224   1.000
    O19     O    0.20025   0.71531   0.22774   1.000
    O20     O    0.22350   0.80783   0.19408   1.000
    N21     N    0.34518   0.65502   0.46523   1.000
    O22     O    0.34471   0.66598   0.53151   1.000
    O23     O    0.33838   0.65609   0.39926   1.000
    N24     N    0.85270   0.27730   0.28586   1.000
    O25     O    0.97345   0.30635   0.30595   1.000
    O26     O    0.85024   0.42407   0.27808   1.000
    O27     O    0.94838   0.21469   0.27240   1.000
    O28     O    0.74362   0.23217   0.26795   1.000
    N29     N    0.14684   0.72271   0.71415   1.000
    O30     O    0.14953   0.57594   0.72191   1.000
    O31     O    0.25615   0.76784   0.73205   1.000
    O32     O    0.02631   0.69366   0.69406   1.000
    O33     O    0.04958   0.78532   0.72761   1.000
    N34     N    0.40521   0.84543   0.96454   1.000
    O35     O    0.40550   0.83518   0.03135   1.000
    O36     O    0.41169   0.84337   0.89904   1.000
    N37     N    0.84518   0.65502   0.46523   1.000
    O38     O    0.83838   0.65609   0.39926   1.000
    O39     O    0.84471   0.66598   0.53151   1.000
    N40     N    0.09476   0.15456   0.03546   1.000
    O41     O    0.09448   0.16482   0.96866   1.000
    O42     O    0.08830   0.15662   0.10096   1.000
    N43     N    0.64684   0.72271   0.71415   1.000
    O44     O    0.64953   0.57594   0.72191   1.000
    O45     O    0.75615   0.76784   0.73205   1.000
    O46     O    0.52631   0.69366   0.69406   1.000
    O47     O    0.54958   0.78532   0.72760   1.000
    N48     N    0.60315   0.77844   0.21430   1.000
    O49     O    0.49380   0.73263   0.23224   1.000
    O50     O    0.70041   0.71531   0.22774   1.000
    O51     O    0.60046   0.92512   0.22199   1.000
    O52     O    0.72367   0.80783   0.19408   1.000
    N53     N    0.35315   0.27730   0.28586   1.000
    O54     O    0.24384   0.23217   0.26795   1.000
    O55     O    0.35046   0.42407   0.27809   1.000
    O56     O    0.45041   0.21469   0.27240   1.000
    O57     O    0.47368   0.30635   0.30595   1.000
    N58     N    0.39683   0.22156   0.78570   1.000
    O59     O    0.29957   0.28470   0.77226   1.000
    O60     O    0.50619   0.26738   0.76776   1.000
    O61     O    0.39953   0.07488   0.77802   1.000
    O62     O    0.27631   0.19217   0.80592   1.000
    N63     N    0.89683   0.22156   0.78570   1.000
    O64     O    0.00619   0.26738   0.76776   1.000
    O65     O    0.89953   0.07488   0.77802   1.000
    O66     O    0.77632   0.19217   0.80592   1.000
    O67     O    0.79958   0.28470   0.77226   1.000
    N68     N    0.65480   0.34497   0.53478   1.000
    O69     O    0.66160   0.34391   0.60074   1.000
    O70     O    0.65528   0.33402   0.46850   1.000
    N71     N    0.90520   0.84542   0.96455   1.000
    O72     O    0.90550   0.83517   0.03135   1.000
    O73     O    0.91168   0.84337   0.89905   1.000
    N74     N    0.15480   0.34498   0.53478   1.000
    O75     O    0.15528   0.33402   0.46850   1.000
    O76     O    0.16160   0.34392   0.60074   1.000
    N77     N    0.59477   0.15457   0.03546   1.000
    O78     O    0.58830   0.15663   0.10096   1.000
    O79     O    0.59448   0.16482   0.96866   1.000
    O80     O    0.48487   0.19021   0.80027   1.000
    O81     O    0.01495   0.80979   0.19973   1.000
    O82     O    0.23484   0.69155   0.69962   1.000
    O83     O    0.98487   0.19021   0.80027   1.000
    O84     O    0.26515   0.30846   0.30039   1.000
    O85     O    0.76492   0.30846   0.30038   1.000
    O86     O    0.51512   0.80979   0.19973   1.000
    O87     O    0.73484   0.69155   0.69962   1.000
loop_
    _geom_bond_atom_site_label_1
    _geom_bond_atom_site_label_2
    _geom_bond_distance
    _geom_bond_site_symmetry_2
    _ccdc_geom_bond_type
    N16    O17       2.11466      .   S
    Zr2    O17       3.08074  1_545   S
    N16    O18       1.92595  1_455   S
    Zr15   O18       2.84410      .   S
    N16    O19       2.23154      .   S
    Zr14   O19       3.14550      .   S
    N16    O20       2.14218      .   S
    Zr12   O20       3.09923      .   S
    N21    O22       1.02967      .   S
    Zr8    O22       1.96148      .   S
    N21    O23       1.01868      .   S
    Zr14   O23       1.94718      .   S
    N24    O25       2.14265      .   S
    Zr0    O25       3.09976  1_455   S
    N24    O26       2.11345      .   S
    Zr15   O26       3.07821      .   S
    N24    O27       2.20024      .   S
    Zr2    O27       3.17247  1_455   S
    N24    O28       1.92368      .   S
    Zr3    O28       2.83992      .   S
    N29    O30       2.11474      .   S
    Zr6    O30       3.07970      .   S
    N29    O31       1.92754      .   S
    Zr10   O31       2.84345      .   S
    N29    O32       2.13864      .   S
    Zr9    O32       3.09575  1_655   S
    N29    O33       2.22670      .   S
    Zr11   O33       3.13868  1_655   S
    N34    O35       1.03303  1_556   S
    Zr12   O35       1.96748      .   S
    N34    O36       1.01278      .   S
    Zr10   O36       1.93667      .   S
    N37    O38       1.01867      .   S
    Zr15   O38       1.94718      .   S
    N37    O39       1.02968      .   S
    Zr9    O39       1.96148      .   S
    N40    O41       1.03299  1_554   S
    Zr4    O41       1.96743      .   S
    N40    O42       1.01282      .   S
    Zr2    O42       1.93672      .   S
    N43    O44       2.11474      .   S
    Zr7    O44       3.07970      .   S
    N43    O45       1.92754      .   S
    Zr11   O45       2.84344      .   S
    N43    O46       2.13866      .   S
    Zr8    O46       3.09578      .   S
    N43    O47       2.22669      .   S
    Zr10   O47       3.13874      .   S
    N48    O49       1.92880      .   S
    Zr14   O49       2.84668      .   S
    N48    O50       2.22877      .   S
    Zr15   O50       3.14275      .   S
    N48    O51       2.11562      .   S
    Zr3    O51       3.08184  1_545   S
    N48    O52       2.13926      .   S
    Zr13   O52       3.09630      .   S
    N53    O54       1.92754      .   S
    Zr2    O54       2.84344      .   S
    N53    O55       2.11475      .   S
    Zr14   O55       3.07972      .   S
    N53    O56       2.22670      .   S
    Zr3    O56       3.13872      .   S
    N53    O57       2.13867      .   S
    Zr1    O57       3.09577      .   S
    N58    O59       2.22878      .   S
    Zr6    O59       3.14285      .   S
    N58    O60       1.92883      .   S
    Zr7    O60       2.84683      .   S
    N58    O61       2.11563      .   S
    Zr10   O61       3.08185  1_565   S
    N58    O62       2.13926      .   S
    Zr4    O62       3.09630      .   S
    N63    O64       1.92881  1_655   S
    Zr6    O64       2.84682      .   S
    N63    O65       2.11563      .   S
    Zr11   O65       3.08185  1_565   S
    N63    O66       2.13926      .   S
    Zr5    O66       3.09630      .   S
    N63    O67       2.22877      .   S
    Zr7    O67       3.14285      .   S
    N68    O69       1.01847      .   S
    Zr7    O69       1.94660      .   S
    N68    O70       1.02969      .   S
    Zr1    O70       1.96149      .   S
    N71    O72       1.03297  1_556   S
    Zr13   O72       1.96742      .   S
    N71    O73       1.01284      .   S
    Zr11   O73       1.93673      .   S
    N74    O75       1.02969      .   S
    Zr0    O75       1.96150      .   S
    N74    O76       1.01847      .   S
    Zr6    O76       1.94660      .   S
    N77    O78       1.01283      .   S
    Zr3    O78       1.93672      .   S
    N77    O79       1.03298  1_554   S
    Zr5    O79       1.96742      .   S
    Zr5    O80       2.41503      .   S
    N58    O80       1.80712      .   S
    Zr13   O81       2.41209  1_655   S
    N16    O81       1.80420      .   S
    Zr8    O82       2.41639      .   S
    N29    O82       1.80751      .   S
    Zr4    O83       2.41502  1_455   S
    N63    O83       1.80710      .   S
    Zr0    O84       2.41640      .   S
    N53    O84       1.80751      .   S
    Zr1    O85       2.41247      .   S
    N24    O85       1.80354      .   S
    Zr12   O86       2.41500      .   S
    N48    O86       1.80713      .   S
    Zr9    O87       2.41639      .   S
    N43    O87       1.80751      .   S
