# CIF file generated by openbabel 2.4.90, see http://openbabel.sf.net
data_I
_chemical_name_common ''
_cell_length_a 18.28
_cell_length_b 14.29
_cell_length_c 15.324
_cell_angle_alpha 89.443
_cell_angle_beta 90.195
_cell_angle_gamma 107.341
_space_group_name_H-M_alt 'P 1'
_space_group_name_Hall 'P 1'
loop_
    _symmetry_equiv_pos_as_xyz
    x,y,z
loop_
    _atom_site_label
    _atom_site_type_symbol
    _atom_site_fract_x
    _atom_site_fract_y
    _atom_site_fract_z
    _atom_site_occupancy
    C0      C    0.14612   0.33725   0.34101   1.000
    C1      C    0.64612   0.33725   0.34101   1.000
    C2      C    0.08813   0.13547   0.22600   1.000
    C3      C    0.58813   0.13547   0.22600   1.000
    C4      C    0.10390   0.16078   0.84099   1.000
    C5      C    0.60391   0.16078   0.84099   1.000
    C6      C    0.16198   0.36571   0.72596   1.000
    C7      C    0.66198   0.36571   0.72596   1.000
    C8      C    0.35387   0.66275   0.65900   1.000
    C9      C    0.85387   0.66275   0.65900   1.000
    C10     C    0.41186   0.86453   0.77401   1.000
    C11     C    0.91186   0.86453   0.77401   1.000
    C12     C    0.39608   0.83922   0.15902   1.000
    C13     C    0.89608   0.83922   0.15902   1.000
    C14     C    0.33801   0.63430   0.27400   1.000
    C15     C    0.83801   0.63430   0.27400   1.000
    C16     C    0.43546   0.40457   0.29640   1.000
    C17     C    0.93546   0.40457   0.29641   1.000
    C18     C    0.36805   0.09075   0.27909   1.000
    C19     C    0.86805   0.09075   0.27908   1.000
    C20     C    0.23140   0.08743   0.26953   1.000
    C21     C    0.73140   0.08743   0.26953   1.000
    C22     C    0.12500   0.40456   0.53351   1.000
    C23     C    0.62498   0.40454   0.53351   1.000
    C24     C    0.31463   0.09406   0.79668   1.000
    C25     C    0.81463   0.09406   0.79669   1.000
    C26     C    0.38183   0.40818   0.77854   1.000
    C27     C    0.88184   0.40818   0.77854   1.000
    C28     C    0.01845   0.41179   0.76890   1.000
    C29     C    0.51845   0.41179   0.76890   1.000
    C30     C    0.12350   0.09391   0.03673   1.000
    C31     C    0.62354   0.09395   0.03673   1.000
    C32     C    0.06453   0.59544   0.70360   1.000
    C33     C    0.56453   0.59544   0.70360   1.000
    C34     C    0.13194   0.90926   0.72092   1.000
    C35     C    0.63194   0.90926   0.72092   1.000
    C36     C    0.26859   0.91258   0.73048   1.000
    C37     C    0.76859   0.91258   0.73048   1.000
    C38     C    0.37498   0.59544   0.46651   1.000
    C39     C    0.87498   0.59543   0.46651   1.000
    C40     C    0.18535   0.90595   0.20333   1.000
    C41     C    0.68535   0.90595   0.20333   1.000
    C42     C    0.11815   0.59182   0.22140   1.000
    C43     C    0.61815   0.59182   0.22146   1.000
    C44     C    0.48153   0.58822   0.23110   1.000
    C45     C    0.98154   0.58822   0.23111   1.000
    C46     C    0.37642   0.90602   0.96328   1.000
    C47     C    0.87640   0.90600   0.96328   1.000
    C48     C    0.25534   0.24384   0.27804   1.000
    C49     C    0.75534   0.24384   0.27804   1.000
    C50     C    0.31420   0.33546   0.28492   1.000
    C51     C    0.81420   0.33546   0.28492   1.000
    C52     C    0.39071   0.33499   0.29085   1.000
    C53     C    0.89071   0.33499   0.29084   1.000
    C54     C    0.41087   0.24832   0.28976   1.000
    C55     C    0.91087   0.24832   0.28976   1.000
    C56     C    0.35255   0.15865   0.28050   1.000
    C57     C    0.85255   0.15865   0.28049   1.000
    C58     C    0.27666   0.15675   0.27480   1.000
    C59     C    0.77666   0.15675   0.27480   1.000
    C60     C    0.30005   0.43243   0.28512   1.000
    C61     C    0.80005   0.43243   0.28512   1.000
    C62     C    0.49183   0.25006   0.29751   1.000
    C63     C    0.99183   0.25006   0.29751   1.000
    C64     C    0.15400   0.34648   0.53476   1.000
    C65     C    0.65400   0.34647   0.53476   1.000
    C66     C    0.99469   0.25524   0.77777   1.000
    C67     C    0.49470   0.25524   0.77777   1.000
    C68     C    0.43585   0.16346   0.78487   1.000
    C69     C    0.93586   0.16346   0.78487   1.000
    C70     C    0.35934   0.16378   0.79093   1.000
    C71     C    0.85934   0.16378   0.79093   1.000
    C72     C    0.33907   0.25041   0.78957   1.000
    C73     C    0.83907   0.25041   0.78957   1.000
    C74     C    0.39736   0.34026   0.78012   1.000
    C75     C    0.89736   0.34026   0.78012   1.000
    C76     C    0.47325   0.34231   0.77431   1.000
    C77     C    0.97325   0.34231   0.77431   1.000
    C78     C    0.45003   0.06646   0.78519   1.000
    C79     C    0.95003   0.06646   0.78519   1.000
    C80     C    0.25809   0.24851   0.79742   1.000
    C81     C    0.75809   0.24851   0.79742   1.000
    C82     C    0.09554   0.15304   0.03548   1.000
    C83     C    0.59556   0.15305   0.03548   1.000
    C84     C    0.24465   0.75616   0.72197   1.000
    C85     C    0.74465   0.75616   0.72197   1.000
    C86     C    0.18579   0.66455   0.71509   1.000
    C87     C    0.68579   0.66455   0.71509   1.000
    C88     C    0.10929   0.66502   0.70910   1.000
    C89     C    0.60929   0.66502   0.70916   1.000
    C90     C    0.08912   0.75169   0.71025   1.000
    C91     C    0.58912   0.75169   0.71025   1.000
    C92     C    0.14744   0.84135   0.71951   1.000
    C93     C    0.64744   0.84135   0.71951   1.000
    C94     C    0.22333   0.84325   0.72520   1.000
    C95     C    0.72333   0.84325   0.72521   1.000
    C96     C    0.19994   0.56758   0.71489   1.000
    C97     C    0.69994   0.56758   0.71489   1.000
    C98     C    0.00816   0.74995   0.70250   1.000
    C99     C    0.50816   0.74995   0.70250   1.000
    C100    C    0.34598   0.65352   0.46525   1.000
    C101    C    0.84598   0.65352   0.46525   1.000
    C102    C    0.50529   0.74477   0.22220   1.000
    C103    C    0.00000   0.74477   0.22224   1.000
    C104    C    0.06413   0.83655   0.21514   1.000
    C105    C    0.56413   0.83655   0.21515   1.000
    C106    C    0.14065   0.83622   0.20908   1.000
    C107    C    0.64065   0.83622   0.20907   1.000
    C108    C    0.16092   0.74959   0.21044   1.000
    C109    C    0.66092   0.74959   0.21044   1.000
    C110    C    0.10262   0.65974   0.21988   1.000
    C111    C    0.60262   0.65974   0.21988   1.000
    C112    C    0.02674   0.65769   0.22570   1.000
    C113    C    0.52674   0.65769   0.22571   1.000
    C114    C    0.04996   0.93355   0.21483   1.000
    C115    C    0.54996   0.93355   0.21483   1.000
    C116    C    0.24189   0.75149   0.20260   1.000
    C117    C    0.74190   0.75149   0.20260   1.000
    C118    C    0.40442   0.84695   0.96450   1.000
    C119    C    0.90442   0.84694   0.96453   1.000
    C120    C    0.18094   0.23859   0.27410   1.000
    C121    C    0.68094   0.23859   0.27410   1.000
    C122    C    0.23539   0.44535   0.30353   1.000
    C123    C    0.73539   0.44535   0.30353   1.000
    C124    C    0.35752   0.50738   0.26663   1.000
    C125    C    0.85752   0.50738   0.26662   1.000
    C126    C    0.04228   0.33354   0.31109   1.000
    C127    C    0.54228   0.33354   0.31109   1.000
    C128    C    0.50721   0.16868   0.29188   1.000
    C129    C    0.00000   0.16868   0.29188   1.000
    C130    C    0.16538   0.30888   0.46342   1.000
    C131    C    0.66539   0.30888   0.46342   1.000
    C132    C    0.17483   0.32000   0.60744   1.000
    C133    C    0.67483   0.32000   0.60744   1.000
    C134    C    0.06910   0.26069   0.77366   1.000
    C135    C    0.56911   0.26069   0.77366   1.000
    C136    C    0.01470   0.05320   0.80370   1.000
    C137    C    0.51470   0.05320   0.80370   1.000
    C138    C    0.39258   0.99188   0.76665   1.000
    C139    C    0.89258   0.99188   0.76665   1.000
    C140    C    0.20769   0.16477   0.81129   1.000
    C141    C    0.70769   0.16478   0.81129   1.000
    C142    C    0.24265   0.32996   0.79166   1.000
    C143    C    0.74265   0.32996   0.79166   1.000
    C144    C    0.08448   0.18937   0.96271   1.000
    C145    C    0.58448   0.18937   0.96271   1.000
    C146    C    0.07553   0.18190   0.10693   1.000
    C147    C    0.57553   0.18190   0.10693   1.000
    C148    C    0.31905   0.76141   0.72591   1.000
    C149    C    0.81905   0.76141   0.72591   1.000
    C150    C    0.26460   0.55466   0.69648   1.000
    C151    C    0.76460   0.55466   0.69648   1.000
    C152    C    0.14247   0.49262   0.73339   1.000
    C153    C    0.64247   0.49262   0.73339   1.000
    C154    C    0.45771   0.66647   0.68893   1.000
    C155    C    0.95771   0.66647   0.68893   1.000
    C156    C    0.99278   0.83132   0.70814   1.000
    C157    C    0.49278   0.83132   0.70810   1.000
    C158    C    0.33461   0.69113   0.53659   1.000
    C159    C    0.83461   0.69113   0.53659   1.000
    C160    C    0.32516   0.68000   0.39257   1.000
    C161    C    0.82516   0.68001   0.39257   1.000
    C162    C    0.43088   0.73932   0.22635   1.000
    C163    C    0.93088   0.73932   0.22635   1.000
    C164    C    0.48529   0.94681   0.19624   1.000
    C165    C    0.98529   0.94681   0.19624   1.000
    C166    C    0.10741   0.00812   0.23336   1.000
    C167    C    0.60741   0.00812   0.23336   1.000
    C168    C    0.29230   0.83523   0.18872   1.000
    C169    C    0.79230   0.83523   0.18872   1.000
    C170    C    0.25733   0.67004   0.20835   1.000
    C171    C    0.75733   0.67004   0.20835   1.000
    C172    C    0.41551   0.81063   0.03730   1.000
    C173    C    0.91552   0.81063   0.03730   1.000
    C174    C    0.42447   0.81811   0.89308   1.000
    C175    C    0.92447   0.81811   0.89308   1.000
    O176    O    0.10952   0.12347   0.03610   1.000
    O177    O    0.08554   0.16747   0.07120   1.000
    O178    O    0.09001   0.17120   0.99909   1.000
    O179    O    0.60955   0.12350   0.03610   1.000
    O180    O    0.58554   0.16747   0.07120   1.000
    O181    O    0.59002   0.17121   0.99909   1.000
    O182    O    0.90580   0.82493   0.09816   1.000
    O183    O    0.90997   0.82879   0.00091   1.000
    O184    O    0.40580   0.82493   0.09816   1.000
    O185    O    0.40997   0.82879   0.00090   1.000
    O186    O    0.58183   0.15869   0.16647   1.000
    O187    O    0.08183   0.15869   0.16647   1.000
    O188    O    0.84419   0.83722   0.17387   1.000
    O189    O    0.94069   0.89301   0.17763   1.000
    O190    O    0.91348   0.78927   0.19269   1.000
    O191    O    0.34419   0.83723   0.17387   1.000
    O192    O    0.44068   0.89301   0.17763   1.000
    O193    O    0.41348   0.78927   0.19269   1.000
    O194    O    0.26710   0.79336   0.19566   1.000
    O195    O    0.76710   0.79336   0.19566   1.000
    O196    O    0.51762   0.94018   0.20553   1.000
    O197    O    0.01762   0.94018   0.20553   1.000
    O198    O    0.74961   0.71076   0.20548   1.000
    O199    O    0.70141   0.75054   0.20652   1.000
    O200    O    0.24961   0.71076   0.20548   1.000
    O201    O    0.20141   0.75054   0.20652   1.000
    O202    O    0.66300   0.87109   0.20620   1.000
    O203    O    0.16300   0.87109   0.20620   1.000
    O204    O    0.29767   0.65217   0.24118   1.000
    O205    O    0.79767   0.65217   0.24118   1.000
    O206    O    0.65078   0.79291   0.20975   1.000
    O207    O    0.60239   0.83638   0.21211   1.000
    O208    O    0.15078   0.79291   0.20976   1.000
    O209    O    0.10239   0.83639   0.21211   1.000
    O210    O    0.63177   0.70467   0.21516   1.000
    O211    O    0.13177   0.70467   0.21516   1.000
    O212    O    0.55704   0.88505   0.21499   1.000
    O213    O    0.57868   0.97083   0.22410   1.000
    O214    O    0.05704   0.88505   0.21498   1.000
    O215    O    0.07868   0.97083   0.22410   1.000
    O216    O    0.03207   0.79066   0.21869   1.000
    O217    O    0.53471   0.79066   0.21868   1.000
    O218    O    0.11039   0.62578   0.22064   1.000
    O219    O    0.06468   0.65871   0.22279   1.000
    O220    O    0.61039   0.62578   0.22067   1.000
    O221    O    0.56468   0.65872   0.22279   1.000
    O222    O    0.51601   0.70123   0.22395   1.000
    O223    O    0.46808   0.74204   0.22428   1.000
    O224    O    0.01337   0.70123   0.22397   1.000
    O225    O    0.96544   0.74204   0.22429   1.000
    O226    O    0.00414   0.62295   0.22841   1.000
    O227    O    0.50414   0.62295   0.22840   1.000
    O228    O    0.59777   0.07180   0.22968   1.000
    O229    O    0.54767   0.15208   0.25894   1.000
    O230    O    0.09777   0.07180   0.22968   1.000
    O231    O    0.04407   0.15208   0.25894   1.000
    O232    O    0.84777   0.57084   0.27031   1.000
    O233    O    0.82879   0.46991   0.27587   1.000
    O234    O    0.34777   0.57084   0.27031   1.000
    O235    O    0.32878   0.46991   0.27588   1.000
    O236    O    0.25403   0.12209   0.27216   1.000
    O237    O    0.75403   0.12209   0.27216   1.000
    O238    O    0.33158   0.65715   0.33328   1.000
    O239    O    0.83159   0.65715   0.33328   1.000
    O240    O    0.71814   0.24122   0.27607   1.000
    O241    O    0.66353   0.28792   0.30755   1.000
    O242    O    0.21814   0.24122   0.27607   1.000
    O243    O    0.16353   0.28792   0.30755   1.000
    O244    O    0.26600   0.20030   0.27642   1.000
    O245    O    0.31460   0.15770   0.27765   1.000
    O246    O    0.76600   0.20030   0.27642   1.000
    O247    O    0.81461   0.15770   0.27765   1.000
    O248    O    0.78477   0.28965   0.28148   1.000
    O249    O    0.28477   0.28965   0.28148   1.000
    O250    O    0.86030   0.12470   0.27978   1.000
    O251    O    0.36030   0.12470   0.27980   1.000
    O252    O    0.88171   0.20349   0.28513   1.000
    O253    O    0.38171   0.20349   0.28513   1.000
    O254    O    0.30712   0.38394   0.28502   1.000
    O255    O    0.35245   0.33522   0.28789   1.000
    O256    O    0.80712   0.38394   0.28502   1.000
    O257    O    0.85245   0.33522   0.28788   1.000
    O258    O    0.26772   0.43889   0.29433   1.000
    O259    O    0.76772   0.43889   0.29433   1.000
    O260    O    0.40079   0.29165   0.29031   1.000
    O261    O    0.45135   0.24919   0.29364   1.000
    O262    O    0.90079   0.29165   0.29030   1.000
    O263    O    0.95135   0.24919   0.29364   1.000
    O264    O    0.91309   0.36978   0.29362   1.000
    O265    O    0.41308   0.36978   0.29362   1.000
    O266    O    0.49952   0.20937   0.29470   1.000
    O267    O    0.99591   0.20937   0.29470   1.000
    O268    O    0.51706   0.29180   0.30430   1.000
    O269    O    0.01706   0.29180   0.30430   1.000
    O270    O    0.69076   0.39130   0.32227   1.000
    O271    O    0.19076   0.39130   0.32227   1.000
    O272    O    0.59420   0.33540   0.32605   1.000
    O273    O    0.09420   0.33540   0.32605   1.000
    O274    O    0.15575   0.32307   0.40221   1.000
    O275    O    0.65575   0.32307   0.40221   1.000
    O276    O    0.33557   0.66676   0.42891   1.000
    O277    O    0.83557   0.66676   0.42891   1.000
    O278    O    0.15969   0.32768   0.49909   1.000
    O279    O    0.65969   0.32768   0.49909   1.000
    O280    O    0.36048   0.62448   0.46588   1.000
    O281    O    0.34030   0.67232   0.50092   1.000
    O282    O    0.86048   0.62447   0.46588   1.000
    O283    O    0.84030   0.67232   0.50092   1.000
    O284    O    0.13950   0.37552   0.53413   1.000
    O285    O    0.63949   0.37551   0.53413   1.000
    O286    O    0.16442   0.33324   0.57110   1.000
    O287    O    0.66442   0.33324   0.57110   1.000
    O288    O    0.34424   0.67694   0.59779   1.000
    O289    O    0.84424   0.67694   0.59779   1.000
    O290    O    0.16840   0.34285   0.66670   1.000
    O291    O    0.66841   0.34285   0.66670   1.000
    O292    O    0.90579   0.66461   0.67397   1.000
    O293    O    0.80923   0.60870   0.67774   1.000
    O294    O    0.83646   0.71208   0.69245   1.000
    O295    O    0.40579   0.66461   0.67397   1.000
    O296    O    0.30923   0.60870   0.67774   1.000
    O297    O    0.33646   0.71208   0.69245   1.000
    O298    O    0.98294   0.70821   0.69571   1.000
    O299    O    0.48294   0.70821   0.69571   1.000
    O300    O    0.23227   0.56112   0.70568   1.000
    O301    O    0.73227   0.56112   0.70568   1.000
    O302    O    0.50047   0.79063   0.70530   1.000
    O303    O    0.54864   0.75082   0.70638   1.000
    O304    O    0.00047   0.79063   0.70532   1.000
    O305    O    0.04864   0.75082   0.70638   1.000
    O306    O    0.08691   0.63023   0.70635   1.000
    O307    O    0.58691   0.63023   0.70638   1.000
    O308    O    0.45232   0.84793   0.74105   1.000
    O309    O    0.95232   0.84793   0.74107   1.000
    O310    O    0.09920   0.70835   0.70967   1.000
    O311    O    0.14754   0.66478   0.71210   1.000
    O312    O    0.59920   0.70835   0.70970   1.000
    O313    O    0.64754   0.66478   0.71213   1.000
    O314    O    0.11828   0.79652   0.71488   1.000
    O315    O    0.61828   0.79652   0.71488   1.000
    O316    O    0.19287   0.61606   0.71499   1.000
    O317    O    0.17120   0.53010   0.72414   1.000
    O318    O    0.69287   0.61606   0.71499   1.000
    O319    O    0.67121   0.53010   0.72414   1.000
    O320    O    0.71522   0.71035   0.71853   1.000
    O321    O    0.21522   0.71036   0.71853   1.000
    O322    O    0.13969   0.87531   0.72022   1.000
    O323    O    0.18538   0.84230   0.72235   1.000
    O324    O    0.63969   0.87531   0.72022   1.000
    O325    O    0.68539   0.84230   0.72236   1.000
    O326    O    0.73399   0.79971   0.72359   1.000
    O327    O    0.78185   0.75879   0.72394   1.000
    O328    O    0.23399   0.79971   0.72358   1.000
    O329    O    0.28185   0.75879   0.72394   1.000
    O330    O    0.24596   0.87792   0.72784   1.000
    O331    O    0.74596   0.87792   0.72784   1.000
    O332    O    0.15222   0.42917   0.72968   1.000
    O333    O    0.20232   0.34783   0.75881   1.000
    O334    O    0.65222   0.42917   0.72968   1.000
    O335    O    0.70232   0.34783   0.75881   1.000
    O336    O    0.40222   0.92821   0.77033   1.000
    O337    O    0.42130   0.02917   0.77592   1.000
    O338    O    0.90222   0.92821   0.77033   1.000
    O339    O    0.92130   0.02917   0.77592   1.000
    O340    O    0.49585   0.37705   0.77160   1.000
    O341    O    0.99585   0.37705   0.77160   1.000
    O342    O    0.03190   0.25796   0.77571   1.000
    O343    O    0.08650   0.21073   0.80732   1.000
    O344    O    0.53190   0.25796   0.77571   1.000
    O345    O    0.58651   0.21073   0.80732   1.000
    O346    O    0.91817   0.84132   0.83354   1.000
    O347    O    0.41816   0.84132   0.83354   1.000
    O348    O    0.48397   0.29878   0.77604   1.000
    O349    O    0.43530   0.34129   0.77721   1.000
    O350    O    0.98397   0.29878   0.77604   1.000
    O351    O    0.93531   0.34129   0.77721   1.000
    O352    O    0.46527   0.20935   0.78132   1.000
    O353    O    0.96528   0.20935   0.78132   1.000
    O354    O    0.88960   0.37422   0.77933   1.000
    O355    O    0.38960   0.37422   0.77933   1.000
    O356    O    0.36821   0.29534   0.78485   1.000
    O357    O    0.86821   0.29534   0.78485   1.000
    O358    O    0.94294   0.11496   0.78503   1.000
    O359    O    0.89760   0.16362   0.78790   1.000
    O360    O    0.44294   0.11496   0.78503   1.000
    O361    O    0.39760   0.16362   0.78790   1.000
    O362    O    0.98236   0.05983   0.79444   1.000
    O363    O    0.48236   0.05983   0.79444   1.000
    O364    O    0.34920   0.20710   0.79025   1.000
    O365    O    0.29858   0.24946   0.79349   1.000
    O366    O    0.84920   0.20710   0.79025   1.000
    O367    O    0.79858   0.24946   0.79349   1.000
    O368    O    0.33698   0.12892   0.79380   1.000
    O369    O    0.83699   0.12892   0.79381   1.000
    O370    O    0.25037   0.28924   0.79454   1.000
    O371    O    0.75037   0.28924   0.79454   1.000
    O372    O    0.23289   0.20664   0.80435   1.000
    O373    O    0.73289   0.20665   0.80435   1.000
    O374    O    0.55930   0.10699   0.82234   1.000
    O375    O    0.05930   0.10699   0.82234   1.000
    O376    O    0.65580   0.16278   0.82614   1.000
    O377    O    0.15580   0.16278   0.82614   1.000
    O378    O    0.09419   0.17508   0.90185   1.000
    O379    O    0.59419   0.17508   0.90185   1.000
    O380    O    0.91444   0.83252   0.92880   1.000
    O381    O    0.41445   0.83253   0.92879   1.000
    O382    O    0.89041   0.87647   0.96390   1.000
    O383    O    0.39042   0.87649   0.96389   1.000
    O384    O    0.13454   0.18703   0.25005   1.000
    O385    O    0.63454   0.18703   0.25005   1.000
    O386    O    0.11554   0.31320   0.74981   1.000
    O387    O    0.61554   0.31320   0.74981   1.000
    O388    O    0.36545   0.81297   0.74996   1.000
    O389    O    0.86546   0.81297   0.74996   1.000
    O390    O    0.38444   0.68681   0.25017   1.000
    O391    O    0.88445   0.68681   0.25017   1.000
loop_
    _geom_bond_atom_site_label_1
    _geom_bond_atom_site_label_2
    _geom_bond_distance
    _geom_bond_site_symmetry_2
    _ccdc_geom_bond_type
    C82    O176      0.55502      .   S
    C30    O176      0.55502      .   S
    C82    O177      0.63332      .   S
    C146   O177      0.63332      .   S
    C82    O178      0.63324  1_554   S
    C144   O178      0.63324      .   S
    C83    O179      0.55503      .   S
    C31    O179      0.55503      .   S
    C83    O180      0.63332      .   S
    C147   O180      0.63332      .   S
    C83    O181      0.63322  1_554   S
    C145   O181      0.63322      .   S
    C173   O182      0.98464      .   S
    C13    O182      0.98464      .   S
    C173   O183      0.63322      .   S
    C119   O183      0.63322  1_556   S
    C172   O184      0.98465      .   S
    C12    O184      0.98465      .   S
    C172   O185      0.63342      .   S
    C118   O185      0.63342  1_556   S
    C147   O186      0.98581      .   S
    C3     O186      0.98581      .   S
    C146   O187      0.98581      .   S
    C2     O187      0.98581      .   S
    C13    O188      0.96832      .   S
    C169   O188      0.96832      .   S
    C13    O189      0.98289      .   S
    C165   O189      0.98289      .   S
    C13    O190      1.00195      .   S
    C163   O190      1.00195      .   S
    C12    O191      0.96831      .   S
    C168   O191      0.96831      .   S
    C12    O192      0.98289      .   S
    C164   O192      0.98289      .   S
    C12    O193      1.00196      .   S
    C162   O193      1.00196      .   S
    C168   O194      0.64522      .   S
    C116   O194      0.64522      .   S
    C169   O195      0.64522      .   S
    C117   O195      0.64522      .   S
    C164   O196      0.64123      .   S
    C115   O196      0.64123      .   S
    C165   O197      0.64122  1_655   S
    C114   O197      0.64122      .   S
    C117   O198      0.63946      .   S
    C171   O198      0.63946      .   S
    C117   O199      0.73884      .   S
    C109   O199      0.73884      .   S
    C116   O200      0.63946      .   S
    C170   O200      0.63946      .   S
    C116   O201      0.73885      .   S
    C108   O201      0.73885      .   S
    C41    O202      0.54353      .   S
    C107   O202      0.54353      .   S
    C40    O203      0.54353      .   S
    C106   O203      0.54353      .   S
    C170   O204      0.98449      .   S
    C14    O204      0.98449      .   S
    C171   O205      0.98449      .   S
    C15    O205      0.98449      .   S
    C107   O206      0.69700      .   S
    C109   O206      0.69700      .   S
    C107   O207      0.70175      .   S
    C105   O207      0.70175      .   S
    C106   O208      0.69700      .   S
    C108   O208      0.69700      .   S
    C106   O209      0.70174      .   S
    C104   O209      0.70174      .   S
    C109   O210      0.70479      .   S
    C111   O210      0.70479      .   S
    C108   O211      0.70479      .   S
    C110   O211      0.70479      .   S
    C115   O212      0.74204      .   S
    C105   O212      0.74204      .   S
    C115   O213      0.64342      .   S
    C167   O213      0.64342  1_545   S
    C114   O214      0.74204      .   S
    C104   O214      0.74204      .   S
    C114   O215      0.64342      .   S
    C166   O215      0.64342  1_545   S
    C104   O216      0.73957      .   S
    C103   O216      0.73957      .   S
    C105   O217      0.71517      .   S
    C102   O217      0.71517      .   S
    C110   O218      0.54470      .   S
    C42    O218      0.54470      .   S
    C110   O219      0.69094      .   S
    C112   O219      0.69094      .   S
    C111   O220      0.54471      .   S
    C43    O220      0.54471      .   S
    C111   O221      0.69095      .   S
    C113   O221      0.69095      .   S
    C102   O222      0.70610      .   S
    C113   O222      0.70610      .   S
    C102   O223      0.67038      .   S
    C162   O223      0.67038      .   S
    C103   O224      0.73334      .   S
    C112   O224      0.73334      .   S
    C103   O225      0.62214  1_455   S
    C163   O225      0.62214      .   S
    C112   O226      0.54429      .   S
    C45    O226      0.54429  1_655   S
    C113   O227      0.54430      .   S
    C44    O227      0.54430      .   S
    C3     O228      0.97811      .   S
    C167   O228      0.97811      .   S
    C3     O229      0.98370      .   S
    C128   O229      0.98370      .   S
    C2     O230      0.97811      .   S
    C166   O230      0.97811      .   S
    C2     O231      1.03875      .   S
    C129   O231      1.03875      .   S
    C125   O232      0.97714      .   S
    C15    O232      0.97714      .   S
    C125   O233      0.64356      .   S
    C61    O233      0.64356      .   S
    C124   O234      0.97714      .   S
    C14    O234      0.97714      .   S
    C124   O235      0.64355      .   S
    C60    O235      0.64355      .   S
    C20    O236      0.54429      .   S
    C58    O236      0.54429      .   S
    C21    O237      0.54429      .   S
    C59    O237      0.54429      .   S
    C14    O238      0.98749      .   S
    C160   O238      0.98749      .   S
    C15    O239      0.98749      .   S
    C161   O239      0.98749      .   S
    C121   O240      0.67036      .   S
    C49    O240      0.67036      .   S
    C121   O241      1.00145      .   S
    C1     O241      1.00145      .   S
    C120   O242      0.67036      .   S
    C48    O242      0.67036      .   S
    C120   O243      1.00145      .   S
    C0     O243      1.00145      .   S
    C58    O244      0.70600      .   S
    C48    O244      0.70600      .   S
    C58    O245      0.69093      .   S
    C56    O245      0.69093      .   S
    C59    O246      0.70600      .   S
    C49    O246      0.70600      .   S
    C59    O247      0.69093      .   S
    C57    O247      0.69093      .   S
    C49    O248      0.71500      .   S
    C51    O248      0.71500      .   S
    C48    O249      0.71500      .   S
    C50    O249      0.71500      .   S
    C19    O250      0.54471      .   S
    C57    O250      0.54471      .   S
    C18    O251      0.54470      .   S
    C56    O251      0.54470      .   S
    C57    O252      0.70476      .   S
    C55    O252      0.70476      .   S
    C56    O253      0.70476      .   S
    C54    O253      0.70476      .   S
    C50    O254      0.74179      .   S
    C60    O254      0.74179      .   S
    C50    O255      0.70160      .   S
    C52    O255      0.70160      .   S
    C51    O256      0.74178      .   S
    C61    O256      0.74178      .   S
    C51    O257      0.70159      .   S
    C53    O257      0.70159      .   S
    C60    O258      0.64107      .   S
    C122   O258      0.64107      .   S
    C61    O259      0.64109      .   S
    C123   O259      0.64109      .   S
    C54    O260      0.69688      .   S
    C52    O260      0.69688      .   S
    C54    O261      0.73854      .   S
    C62    O261      0.73854      .   S
    C55    O262      0.69688      .   S
    C53    O262      0.69688      .   S
    C55    O263      0.73855      .   S
    C63    O263      0.73855      .   S
    C53    O264      0.54351      .   S
    C17    O264      0.54351      .   S
    C52    O265      0.54350      .   S
    C16    O265      0.54350      .   S
    C128   O266      0.63950      .   S
    C62    O266      0.63950      .   S
    C129   O267      0.60984  1_455   S
    C63    O267      0.60984      .   S
    C62    O268      0.64510      .   S
    C127   O268      0.64510      .   S
    C63    O269      0.64509  1_655   S
    C126   O269      0.64509      .   S
    C123   O270      0.98301      .   S
    C1     O270      0.98301      .   S
    C122   O271      0.98302      .   S
    C0     O271      0.98302      .   S
    C127   O272      0.96833      .   S
    C1     O272      0.96833      .   S
    C126   O273      0.96833      .   S
    C0     O273      0.96833      .   S
    C0     O274      0.98398      .   S
    C130   O274      0.98398      .   S
    C1     O275      0.98398      .   S
    C131   O275      0.98398      .   S
    C160   O276      0.63312      .   S
    C100   O276      0.63312      .   S
    C161   O277      0.63313      .   S
    C101   O277      0.63313      .   S
    C130   O278      0.63378      .   S
    C64    O278      0.63378      .   S
    C131   O279      0.63378      .   S
    C65    O279      0.63378      .   S
    C100   O280      0.55503      .   S
    C38    O280      0.55503      .   S
    C100   O281      0.63378      .   S
    C158   O281      0.63378      .   S
    C101   O282      0.55503      .   S
    C39    O282      0.55503      .   S
    C101   O283      0.63379      .   S
    C159   O283      0.63379      .   S
    C22    O284      0.55503      .   S
    C64    O284      0.55503      .   S
    C23    O285      0.55503      .   S
    C65    O285      0.55503      .   S
    C64    O286      0.63312      .   S
    C132   O286      0.63312      .   S
    C65    O287      0.63313      .   S
    C133   O287      0.63313      .   S
    C158   O288      0.98398      .   S
    C8     O288      0.98398      .   S
    C159   O289      0.98398      .   S
    C9     O289      0.98398      .   S
    C132   O290      0.98714      .   S
    C6     O290      0.98714      .   S
    C133   O291      0.98714      .   S
    C7     O291      0.98714      .   S
    C9     O292      0.96835      .   S
    C155   O292      0.96835      .   S
    C9     O293      0.98301      .   S
    C151   O293      0.98301      .   S
    C9     O294      1.00145      .   S
    C149   O294      1.00145      .   S
    C8     O295      0.96835      .   S
    C154   O295      0.96835      .   S
    C8     O296      0.98301      .   S
    C150   O296      0.98301      .   S
    C8     O297      1.00145      .   S
    C148   O297      1.00145      .   S
    C155   O298      0.64508      .   S
    C98    O298      0.64508  1_455   S
    C154   O299      0.64509      .   S
    C99    O299      0.64509      .   S
    C150   O300      0.64110      .   S
    C96    O300      0.64110      .   S
    C151   O301      0.64109      .   S
    C97    O301      0.64109      .   S
    C99    O302      0.63948      .   S
    C157   O302      0.63948      .   S
    C99    O303      0.73855      .   S
    C91    O303      0.73855      .   S
    C98    O304      0.63950      .   S
    C156   O304      0.63950  1_655   S
    C98    O305      0.73854      .   S
    C90    O305      0.73854      .   S
    C32    O306      0.54347      .   S
    C88    O306      0.54347      .   S
    C33    O307      0.54351      .   S
    C89    O307      0.54351      .   S
    C157   O308      0.98381      .   S
    C10    O308      0.98381      .   S
    C156   O309      0.98364      .   S
    C11    O309      0.98364      .   S
    C88    O310      0.69689      .   S
    C90    O310      0.69689      .   S
    C88    O311      0.70163      .   S
    C86    O311      0.70163      .   S
    C89    O312      0.69688      .   S
    C91    O312      0.69688      .   S
    C89    O313      0.70160      .   S
    C87    O313      0.70160      .   S
    C90    O314      0.70476      .   S
    C92    O314      0.70476      .   S
    C91    O315      0.70476      .   S
    C93    O315      0.70476      .   S
    C96    O316      0.74178      .   S
    C86    O316      0.74178      .   S
    C96    O317      0.64356      .   S
    C152   O317      0.64356      .   S
    C97    O318      0.74179      .   S
    C87    O318      0.74179      .   S
    C97    O319      0.64356      .   S
    C153   O319      0.64356      .   S
    C87    O320      0.71500      .   S
    C85    O320      0.71500      .   S
    C86    O321      0.71500      .   S
    C84    O321      0.71500      .   S
    C92    O322      0.54471      .   S
    C34    O322      0.54471      .   S
    C92    O323      0.69093      .   S
    C94    O323      0.69093      .   S
    C93    O324      0.54471      .   S
    C35    O324      0.54471      .   S
    C93    O325      0.69093      .   S
    C95    O325      0.69093      .   S
    C85    O326      0.70600      .   S
    C95    O326      0.70600      .   S
    C85    O327      0.67036      .   S
    C149   O327      0.67036      .   S
    C84    O328      0.70599      .   S
    C94    O328      0.70599      .   S
    C84    O329      0.67037      .   S
    C148   O329      0.67037      .   S
    C94    O330      0.54430      .   S
    C36    O330      0.54430      .   S
    C95    O331      0.54429      .   S
    C37    O331      0.54429      .   S
    C6     O332      0.97717      .   S
    C152   O332      0.97717      .   S
    C6     O333      0.98467      .   S
    C142   O333      0.98467      .   S
    C7     O334      0.97717      .   S
    C153   O334      0.97717      .   S
    C7     O335      0.98467      .   S
    C143   O335      0.98467      .   S
    C138   O336      0.97811      .   S
    C10    O336      0.97811      .   S
    C138   O337      0.64343  1_565   S
    C78    O337      0.64343      .   S
    C139   O338      0.97811      .   S
    C11    O338      0.97811      .   S
    C139   O339      0.64343  1_565   S
    C79    O339      0.64343      .   S
    C29    O340      0.54430      .   S
    C76    O340      0.54430      .   S
    C28    O341      0.54429  1_455   S
    C77    O341      0.54429      .   S
    C134   O342      0.67036      .   S
    C66    O342      0.67036  1_655   S
    C134   O343      1.00196      .   S
    C4     O343      1.00196      .   S
    C135   O344      0.67037      .   S
    C67    O344      0.67037      .   S
    C135   O345      1.00194      .   S
    C5     O345      1.00194      .   S
    C11    O346      0.98581      .   S
    C175   O346      0.98581      .   S
    C10    O347      0.98581      .   S
    C174   O347      0.98581      .   S
    C76    O348      0.70609      .   S
    C67    O348      0.70609      .   S
    C76    O349      0.69095      .   S
    C74    O349      0.69095      .   S
    C77    O350      0.70608      .   S
    C66    O350      0.70608      .   S
    C77    O351      0.69095      .   S
    C75    O351      0.69095      .   S
    C67    O352      0.71519      .   S
    C68    O352      0.71519      .   S
    C66    O353      0.71518      .   S
    C69    O353      0.71518      .   S
    C27    O354      0.54471      .   S
    C75    O354      0.54471      .   S
    C26    O355      0.54471      .   S
    C74    O355      0.54471      .   S
    C74    O356      0.70479      .   S
    C72    O356      0.70479      .   S
    C75    O357      0.70479      .   S
    C73    O357      0.70479      .   S
    C69    O358      0.74204      .   S
    C79    O358      0.74204      .   S
    C69    O359      0.70175      .   S
    C71    O359      0.70175      .   S
    C68    O360      0.74205      .   S
    C78    O360      0.74205      .   S
    C68    O361      0.70175      .   S
    C70    O361      0.70175      .   S
    C79    O362      0.64109      .   S
    C136   O362      0.64109  1_455   S
    C78    O363      0.64111      .   S
    C137   O363      0.64111      .   S
    C72    O364      0.69700      .   S
    C70    O364      0.69700      .   S
    C72    O365      0.73885      .   S
    C80    O365      0.73885      .   S
    C73    O366      0.69700      .   S
    C71    O366      0.69700      .   S
    C73    O367      0.73884      .   S
    C81    O367      0.73884      .   S
    C70    O368      0.54353      .   S
    C24    O368      0.54353      .   S
    C71    O369      0.54354      .   S
    C25    O369      0.54354      .   S
    C142   O370      0.63947      .   S
    C80    O370      0.63947      .   S
    C143   O371      0.63947      .   S
    C81    O371      0.63947      .   S
    C80    O372      0.64520      .   S
    C140   O372      0.64520      .   S
    C81    O373      0.64520      .   S
    C141   O373      0.64520      .   S
    C137   O374      0.98305      .   S
    C5     O374      0.98305      .   S
    C136   O375      0.98305      .   S
    C4     O375      0.98305      .   S
    C141   O376      0.96832      .   S
    C5     O376      0.96832      .   S
    C140   O377      0.96831      .   S
    C4     O377      0.96831      .   S
    C4     O378      0.98463      .   S
    C144   O378      0.98463      .   S
    C5     O379      0.98463      .   S
    C145   O379      0.98463      .   S
    C175   O380      0.63334      .   S
    C119   O380      0.63334      .   S
    C174   O381      0.63314      .   S
    C118   O381      0.63314      .   S
    C47    O382      0.55502      .   S
    C119   O382      0.55502      .   S
    C46    O383      0.55502      .   S
    C118   O383      0.55502      .   S
    C120   O384      1.01433      .   S
    C2     O384      1.01433      .   S
    C121   O385      1.01433      .   S
    C3     O385      1.01433      .   S
    C134   O386      1.01699      .   S
    C6     O386      1.01699      .   S
    C135   O387      1.01699      .   S
    C7     O387      1.01699      .   S
    C148   O388      1.01433      .   S
    C10    O388      1.01433      .   S
    C149   O389      1.01433      .   S
    C11    O389      1.01433      .   S
    C162   O390      1.01684      .   S
    C14    O390      1.01684      .   S
    C163   O391      1.01684      .   S
    C15    O391      1.01684      .   S
