# CIF file generated by openbabel 2.4.90, see http://openbabel.sf.net
data_I
_chemical_name_common ''
_cell_length_a 10.85
_cell_length_b 14.447
_cell_length_c 15.857
_cell_angle_alpha 90
_cell_angle_beta 89.976
_cell_angle_gamma 90.003
_space_group_name_H-M_alt 'P 1'
_space_group_name_Hall 'P 1'
loop_
    _symmetry_equiv_pos_as_xyz
    x,y,z
loop_
    _atom_site_label
    _atom_site_type_symbol
    _atom_site_fract_x
    _atom_site_fract_y
    _atom_site_fract_z
    _atom_site_occupancy
    Zr0     Zr   0.33239   0.48766   0.74999   1.000
    Zr1     Zr   0.00000   0.48765   0.75001   1.000
    Zr2     Zr   0.33233   0.00000   0.74997   1.000
    Zr3     Zr   0.00000   0.00000   0.75001   1.000
    Zr4     Zr   0.17255   0.51232   0.24992   1.000
    Zr5     Zr   0.67252   0.51231   0.24988   1.000
    Zr6     Zr   0.17254   0.98767   0.24990   1.000
    Zr7     Zr   0.67249   0.98770   0.24980   1.000
    Zr8     Zr   0.06714   0.46798   0.54718   1.000
    Zr9     Zr   0.56717   0.46796   0.54715   1.000
    Zr10    Zr   0.06698   0.03205   0.95276   1.000
    Zr11    Zr   0.56700   0.03201   0.95259   1.000
    Zr12    Zr   0.43792   0.53197   0.04723   1.000
    Zr13    Zr   0.00000   0.53195   0.04725   1.000
    Zr14    Zr   0.43807   0.96792   0.45279   1.000
    Zr15    Zr   0.00000   0.96792   0.45279   1.000
    Zr16    Zr   0.43807   0.53209   0.45280   1.000
    Zr17    Zr   0.00000   0.53208   0.45279   1.000
    Zr18    Zr   0.43792   0.96807   0.04721   1.000
    Zr19    Zr   0.00000   0.96810   0.04726   1.000
    Zr20    Zr   0.06702   0.46795   0.95276   1.000
    Zr21    Zr   0.56702   0.46797   0.95268   1.000
    Zr22    Zr   0.06715   0.03201   0.54718   1.000
    Zr23    Zr   0.56718   0.03203   0.54713   1.000
    Zr24    Zr   0.88402   0.75001   0.75004   1.000
    Zr25    Zr   0.38400   0.75002   0.75010   1.000
    Zr26    Zr   0.62094   0.24998   0.24998   1.000
    Zr27    Zr   0.12106   0.24999   0.25010   1.000
    O28     O    0.50246   0.00004   0.99990   1.000
    O29     O    0.50247   0.49997   0.99995   1.000
    O30     O    0.03351   0.49995   0.00000   1.000
    O31     O    0.03349   0.00007   0.00001   1.000
    O32     O    0.50262   0.99997   0.49996   1.000
    O33     O    0.03358   0.99996   0.49998   1.000
    O34     O    0.03357   0.50003   0.49999   1.000
    O35     O    0.50262   0.50002   0.49998   1.000
    N36     N    0.23860   0.75000   0.58033   1.000
    O37     O    0.28590   0.66075   0.64420   1.000
    O38     O    0.31490   0.66535   0.52985   1.000
    O39     O    0.31489   0.83465   0.52984   1.000
    O40     O    0.17877   0.63258   0.57600   1.000
    O41     O    0.17878   0.86742   0.57600   1.000
    N42     N    0.26669   0.25000   0.41971   1.000
    O43     O    0.21935   0.33925   0.35578   1.000
    O44     O    0.32651   0.36744   0.42402   1.000
    O45     O    0.21936   0.16074   0.35577   1.000
    O46     O    0.19033   0.33469   0.47013   1.000
    O47     O    0.32651   0.13257   0.42401   1.000
    O48     O    0.19033   0.16531   0.47013   1.000
    N49     N    0.73854   0.74999   0.91977   1.000
    O50     O    0.83031   0.66529   0.97023   1.000
    O51     O    0.67867   0.86739   0.92399   1.000
    O52     O    0.83031   0.83472   0.97023   1.000
    O53     O    0.67868   0.63258   0.92401   1.000
    N54     N    0.76613   0.25000   0.07990   1.000
    O55     O    0.71872   0.33926   0.14386   1.000
    O56     O    0.71858   0.16074   0.14376   1.000
    O57     O    0.84157   0.36739   0.07581   1.000
    O58     O    0.69008   0.33466   0.02947   1.000
    O59     O    0.69013   0.16533   0.02937   1.000
    O60     O    0.84153   0.13262   0.07582   1.000
    N61     N    0.26633   0.25000   0.08004   1.000
    O62     O    0.32618   0.13261   0.07587   1.000
    O63     O    0.21893   0.33925   0.14397   1.000
    O64     O    0.32619   0.36740   0.07587   1.000
    O65     O    0.19017   0.33466   0.02962   1.000
    O66     O    0.19016   0.16534   0.02960   1.000
    O67     O    0.21891   0.16074   0.14396   1.000
    N68     N    0.76669   0.24999   0.41961   1.000
    O69     O    0.69033   0.33467   0.47005   1.000
    O70     O    0.84200   0.36743   0.42396   1.000
    O71     O    0.84201   0.13256   0.42396   1.000
    O72     O    0.69032   0.16531   0.47003   1.000
    O73     O    0.71938   0.16074   0.35565   1.000
    O74     O    0.71937   0.33924   0.35569   1.000
    N75     N    0.44828   0.06233   0.60373   1.000
    O76     O    0.47801   0.05476   0.58958   1.000
    O77     O    0.41930   0.04675   0.64029   1.000
    N78     N    0.23850   0.75000   0.91980   1.000
    O79     O    0.31477   0.66530   0.97024   1.000
    O80     O    0.28584   0.66074   0.85589   1.000
    O81     O    0.31477   0.83472   0.97024   1.000
    O82     O    0.17866   0.63258   0.92406   1.000
    O83     O    0.17863   0.86742   0.92406   1.000
    N84     N    0.94815   0.43767   0.89621   1.000
    O85     O    0.96111   0.45016   0.85966   1.000
    O86     O    0.97787   0.44524   0.91035   1.000
    N87     N    0.73859   0.75000   0.58031   1.000
    O88     O    0.83036   0.83465   0.52983   1.000
    O89     O    0.67877   0.86743   0.57598   1.000
    O90     O    0.83037   0.66535   0.52983   1.000
    O91     O    0.67877   0.63257   0.57599   1.000
    N92     N    0.94823   0.43768   0.60375   1.000
    O93     O    0.97796   0.44526   0.58961   1.000
    O94     O    0.96117   0.45017   0.64032   1.000
    N95     N    0.05672   0.93780   0.10375   1.000
    O96     O    0.04254   0.94537   0.08963   1.000
    O97     O    0.08568   0.95026   0.14029   1.000
    N98     N    0.05680   0.56224   0.10375   1.000
    O99     O    0.04260   0.55466   0.08963   1.000
    O100    O    0.08574   0.54976   0.14029   1.000
    N101    N    0.44826   0.43768   0.60374   1.000
    O102    O    0.47799   0.44525   0.58959   1.000
    O103    O    0.41929   0.45017   0.64031   1.000
    N104    N    0.05703   0.93763   0.39624   1.000
    O105    O    0.04277   0.94520   0.41037   1.000
    O106    O    0.08591   0.95014   0.35965   1.000
    N107    N    0.44804   0.06231   0.89615   1.000
    O108    O    0.47778   0.05474   0.91026   1.000
    O109    O    0.41911   0.04673   0.85961   1.000
    N110    N    0.55701   0.93765   0.39623   1.000
    O111    O    0.52727   0.94521   0.41037   1.000
    O112    O    0.58588   0.95016   0.35962   1.000
    N113    N    0.55681   0.93773   0.10372   1.000
    O114    O    0.52709   0.94531   0.08959   1.000
    O115    O    0.58573   0.95022   0.14024   1.000
    N116    N    0.55684   0.56227   0.10374   1.000
    O117    O    0.58576   0.54978   0.14027   1.000
    O118    O    0.52711   0.55469   0.08961   1.000
    N119    N    0.55701   0.56235   0.39623   1.000
    O120    O    0.52727   0.55478   0.41037   1.000
    O121    O    0.58588   0.54984   0.35964   1.000
    N122    N    0.44810   0.43769   0.89618   1.000
    O123    O    0.41917   0.45018   0.85964   1.000
    O124    O    0.47783   0.44526   0.91031   1.000
    N125    N    0.94824   0.06232   0.60374   1.000
    O126    O    0.97796   0.05475   0.58960   1.000
    O127    O    0.96118   0.04674   0.64031   1.000
    N128    N    0.05702   0.56235   0.39623   1.000
    O129    O    0.04276   0.55478   0.41037   1.000
    O130    O    0.08590   0.54985   0.35965   1.000
    N131    N    0.94814   0.06235   0.89620   1.000
    O132    O    0.96111   0.04676   0.85965   1.000
    O133    O    0.97785   0.05477   0.91034   1.000
    O134    O    0.20648   0.25000   0.35582   1.000
    O135    O    0.20605   0.25000   0.14402   1.000
    O136    O    0.26539   0.84779   0.86462   1.000
    O137    O    0.26548   0.84779   0.63544   1.000
    O138    O    0.29874   0.75001   0.85591   1.000
    O139    O    0.29881   0.75001   0.64422   1.000
    O140    O    0.70648   0.24998   0.35571   1.000
    O141    O    0.70576   0.24999   0.14384   1.000
    O142    O    0.79878   0.75000   0.85588   1.000
    O143    O    0.79880   0.75000   0.64420   1.000
loop_
    _geom_bond_atom_site_label_1
    _geom_bond_atom_site_label_2
    _geom_bond_distance
    _geom_bond_site_symmetry_2
    _ccdc_geom_bond_type
    Zr18   O28       1.12515  1_564   S
    Zr11   O28       1.12515      .   S
    Zr12   O29       1.12506  1_554   S
    Zr21   O29       1.12506      .   S
    Zr13   O30       0.95234      .   S
    Zr20   O30       0.95234  1_556   S
    Zr19   O31       0.95214  1_565   S
    Zr10   O31       0.95214  1_556   S
    Zr14   O32       1.12472      .   S
    Zr23   O32       1.12472  1_545   S
    Zr15   O33       0.95255      .   S
    Zr22   O33       0.95255  1_545   S
    Zr17   O34       0.95252      .   S
    Zr8    O34       0.95252      .   S
    Zr16   O35       1.12477      .   S
    Zr9    O35       1.12477      .   S
    N36    O37       1.71819      .   S
    Zr0    O37       3.05331      .   S
    N36    O38       1.67962      .   S
    Zr16   O38       2.64275      .   S
    N36    O39       1.67961      .   S
    Zr14   O39       2.64271      .   S
    N36    O40       1.81764      .   S
    Zr8    O40       2.70754      .   S
    N36    O41       1.81765      .   S
    Zr22   O41       2.70755  1_545   S
    N42    O43       1.71890      .   S
    Zr4    O43       3.05421      .   S
    N42    O44       1.81779      .   S
    Zr16   O44       2.70771      .   S
    N42    O45       1.71898      .   S
    Zr6    O45       3.05429  1_565   S
    N42    O46       1.67988      .   S
    Zr8    O46       2.64313      .   S
    N42    O47       1.81785      .   S
    Zr14   O47       2.70781  1_565   S
    N42    O48       1.67984      .   S
    Zr22   O48       2.64308      .   S
    N49    O50       1.76920      .   S
    Zr13   O50       2.93155  1_454   S
    N49    O51       1.81750      .   S
    Zr11   O51       2.70733  1_545   S
    N49    O52       1.76936      .   S
    Zr19   O52       2.93191  1_454   S
    N49    O53       1.81748      .   S
    Zr21   O53       2.70727      .   S
    N54    O55       1.71914      .   S
    Zr5    O55       3.05420      .   S
    N54    O56       1.71860      .   S
    Zr7    O56       3.05392  1_565   S
    N54    O57       1.88428      .   S
    Zr13   O57       2.96827  1_455   S
    N54    O58       1.67841      .   S
    Zr21   O58       2.64130  1_556   S
    N54    O59       1.67891      .   S
    Zr11   O59       2.64154  1_556   S
    N54    O60       1.88392      .   S
    Zr19   O60       2.96827  1_465   S
    N61    O62       1.81725      .   S
    Zr18   O62       2.70682  1_565   S
    N61    O63       1.71894      .   S
    Zr4    O63       3.05392      .   S
    N61    O64       1.81736      .   S
    Zr12   O64       2.70699      .   S
    N61    O65       1.67889      .   S
    Zr20   O65       2.64200  1_556   S
    N61    O66       1.67895      .   S
    Zr10   O66       2.64202  1_556   S
    N61    O67       1.71885      .   S
    Zr6    O67       3.05381  1_565   S
    N68    O69       1.68001      .   S
    Zr9    O69       2.64329      .   S
    N68    O70       1.88434      .   S
    Zr17   O70       2.96754  1_455   S
    N68    O71       1.88438      .   S
    Zr15   O71       2.96755  1_465   S
    N68    O72       1.67978      .   S
    Zr23   O72       2.64312      .   S
    N68    O73       1.71902      .   S
    Zr7    O73       3.05391  1_565   S
    N68    O74       1.71870      .   S
    Zr5    O74       3.05394      .   S
    N75    O76       0.40776      .   S
    Zr23   O76       1.22327      .   S
    N75    O77       0.69679      .   S
    Zr2    O77       2.09038      .   S
    N78    O79       1.68013      .   S
    Zr12   O79       2.64336  1_554   S
    N78    O80       1.71856      .   S
    Zr0    O80       3.05396      .   S
    N78    O81       1.68016      .   S
    Zr18   O81       2.64341  1_554   S
    N78    O82       1.81763      .   S
    Zr20   O82       2.70753      .   S
    N78    O83       1.81768      .   S
    Zr10   O83       2.70765  1_545   S
    N84    O85       0.62306      .   S
    Zr1    O85       1.86917  1_455   S
    N84    O86       0.40771      .   S
    Zr20   O86       1.22314  1_455   S
    N87    O88       1.76843      .   S
    Zr15   O88       2.92992  1_455   S
    N87    O89       1.81771      .   S
    Zr23   O89       2.70759  1_545   S
    N87    O90       1.76850      .   S
    Zr17   O90       2.93006  1_455   S
    N87    O91       1.81769      .   S
    Zr9    O91       2.70757      .   S
    N92    O93       0.40775      .   S
    Zr8    O93       1.22324  1_455   S
    N92    O94       0.62333      .   S
    Zr1    O94       1.86998  1_455   S
    N95    O96       0.29298      .   S
    Zr19   O96       0.87894      .   S
    N95    O97       0.68333      .   S
    Zr6    O97       2.05000      .   S
    N98    O99       0.29310      .   S
    Zr13   O99       0.87930      .   S
    N98    O100      0.68335      .   S
    Zr4    O100      2.05006      .   S
    N101   O102      0.40776      .   S
    Zr9    O102      1.22327      .   S
    N101   O103      0.68364      .   S
    Zr0    O103      2.05092      .   S
    N104   O105      0.29347      .   S
    Zr15   O105      0.88040      .   S
    N104   O106      0.68354      .   S
    Zr6    O106      2.05063      .   S
    N107   O108      0.40770      .   S
    Zr11   O108      1.22309      .   S
    N107   O109      0.69653      .   S
    Zr2    O109      2.08958      .   S
    N110   O111      0.40775      .   S
    Zr14   O111      1.22324      .   S
    N110   O112      0.68380      .   S
    Zr7    O112      2.05140      .   S
    N113   O114      0.40775      .   S
    Zr18   O114      1.22325      .   S
    N113   O115      0.68304      .   S
    Zr7    O115      2.04911      .   S
    N116   O117      0.68325      .   S
    Zr5    O117      2.04975      .   S
    N116   O118      0.40776      .   S
    Zr12   O118      1.22328      .   S
    N119   O120      0.40775      .   S
    Zr16   O120      1.22325      .   S
    N119   O121      0.68357      .   S
    Zr5    O121      2.05072      .   S
    N122   O123      0.68346      .   S
    Zr0    O123      2.05037      .   S
    N122   O124      0.40771      .   S
    Zr21   O124      1.22312      .   S
    N125   O126      0.40775      .   S
    Zr22   O126      1.22324  1_455   S
    N125   O127      0.63769      .   S
    Zr3    O127      1.91308  1_455   S
    N128   O129      0.29346      .   S
    Zr17   O129      0.88038      .   S
    N128   O130      0.68349      .   S
    Zr4    O130      2.05048      .   S
    N131   O132      0.63743      .   S
    Zr3    O132      1.91228  1_455   S
    N131   O133      0.40770      .   S
    Zr10   O133      1.22311  1_455   S
    Zr27   O134      1.91592      .   S
    N42    O134      1.20561      .   S
    Zr27   O135      1.91798      .   S
    N61    O135      1.20685      .   S
    Zr2    O136      2.94393  1_545   S
    N78    O136      1.68714      .   S
    Zr2    O137      2.94281  1_545   S
    N36    O137      1.68675      .   S
    Zr25   O138      1.91561      .   S
    N78    O138      1.20534      .   S
    Zr25   O139      1.91688      .   S
    N36    O139      1.20575      .   S
    Zr26   O140      1.91663      .   S
    N68    O140      1.20592      .   S
    Zr26   O141      1.91790      .   S
    N54    O141      1.20683      .   S
    Zr24   O142      1.91592      .   S
    N49    O142      1.20546      .   S
    Zr24   O143      1.91655      .   S
    N87    O143      1.20563      .   S
