# CIF file generated by openbabel 2.4.90, see http://openbabel.sf.net
data_I
_chemical_name_common ''
_cell_length_a 10.85
_cell_length_b 14.447
_cell_length_c 15.857
_cell_angle_alpha 90
_cell_angle_beta 89.976
_cell_angle_gamma 90.003
_space_group_name_H-M_alt 'P 1'
_space_group_name_Hall 'P 1'
loop_
    _symmetry_equiv_pos_as_xyz
    x,y,z
loop_
    _atom_site_label
    _atom_site_type_symbol
    _atom_site_fract_x
    _atom_site_fract_y
    _atom_site_fract_z
    _atom_site_occupancy
    Zr0     Zr   0.33239   0.48766   0.74999   1.000
    Zr1     Zr   0.00000   0.48765   0.75001   1.000
    Zr2     Zr   0.33233   0.00000   0.74997   1.000
    Zr3     Zr   0.00000   0.00000   0.75001   1.000
    Zr4     Zr   0.17255   0.51232   0.24992   1.000
    Zr5     Zr   0.67252   0.51231   0.24988   1.000
    Zr6     Zr   0.17254   0.98767   0.24990   1.000
    Zr7     Zr   0.67249   0.98770   0.24980   1.000
    Zr8     Zr   0.06714   0.46798   0.54718   1.000
    Zr9     Zr   0.56717   0.46796   0.54715   1.000
    Zr10    Zr   0.06698   0.03205   0.95276   1.000
    Zr11    Zr   0.56700   0.03201   0.95259   1.000
    Zr12    Zr   0.43792   0.53197   0.04723   1.000
    Zr13    Zr   0.00000   0.53195   0.04725   1.000
    Zr14    Zr   0.43807   0.96792   0.45279   1.000
    Zr15    Zr   0.00000   0.96792   0.45279   1.000
    Zr16    Zr   0.43807   0.53209   0.45280   1.000
    Zr17    Zr   0.00000   0.53208   0.45279   1.000
    Zr18    Zr   0.43792   0.96807   0.04721   1.000
    Zr19    Zr   0.00000   0.96810   0.04726   1.000
    Zr20    Zr   0.06702   0.46795   0.95276   1.000
    Zr21    Zr   0.56702   0.46797   0.95268   1.000
    Zr22    Zr   0.06715   0.03201   0.54718   1.000
    Zr23    Zr   0.56718   0.03203   0.54713   1.000
    Zr24    Zr   0.88402   0.75001   0.75004   1.000
    Zr25    Zr   0.38400   0.75002   0.75010   1.000
    Zr26    Zr   0.62094   0.24998   0.24998   1.000
    Zr27    Zr   0.12106   0.24999   0.25010   1.000
    O28     O    0.50246   0.00004   0.99990   1.000
    O29     O    0.50247   0.49997   0.99995   1.000
    O30     O    0.03351   0.49995   0.00000   1.000
    O31     O    0.03349   0.00007   0.00001   1.000
    O32     O    0.50262   0.99997   0.49996   1.000
    O33     O    0.03358   0.99996   0.49998   1.000
    O34     O    0.03357   0.50003   0.49999   1.000
    O35     O    0.50262   0.50002   0.49998   1.000
    N36     N    0.23860   0.75000   0.58033   1.000
    O37     O    0.29880   0.72634   0.64423   1.000
    O38     O    0.28590   0.66075   0.64420   1.000
    O39     O    0.31490   0.66535   0.52985   1.000
    O40     O    0.31489   0.83465   0.52984   1.000
    O41     O    0.17877   0.63258   0.57600   1.000
    O42     O    0.17878   0.86742   0.57600   1.000
    O43     O    0.24507   0.85942   0.62670   1.000
    O44     O    0.29881   0.77367   0.64422   1.000
    O45     O    0.28589   0.83617   0.64419   1.000
    N46     N    0.26669   0.25000   0.41971   1.000
    O47     O    0.20648   0.27367   0.35582   1.000
    O48     O    0.21935   0.33925   0.35578   1.000
    O49     O    0.32651   0.36744   0.42402   1.000
    O50     O    0.20649   0.22632   0.35582   1.000
    O51     O    0.21936   0.16074   0.35577   1.000
    O52     O    0.19033   0.33469   0.47013   1.000
    O53     O    0.32651   0.13257   0.42401   1.000
    O54     O    0.19033   0.16531   0.47013   1.000
    N55     N    0.73854   0.74999   0.91977   1.000
    O56     O    0.83031   0.66529   0.97023   1.000
    O57     O    0.67867   0.86739   0.92399   1.000
    O58     O    0.83031   0.83472   0.97023   1.000
    O59     O    0.79878   0.77367   0.85588   1.000
    O60     O    0.79878   0.72632   0.85588   1.000
    O61     O    0.67868   0.63258   0.92401   1.000
    N62     N    0.76613   0.25000   0.07990   1.000
    O63     O    0.70583   0.27367   0.14388   1.000
    O64     O    0.71872   0.33926   0.14386   1.000
    O65     O    0.70569   0.22631   0.14381   1.000
    O66     O    0.71858   0.16074   0.14376   1.000
    O67     O    0.84157   0.36739   0.07581   1.000
    O68     O    0.69008   0.33466   0.02947   1.000
    O69     O    0.69013   0.16533   0.02937   1.000
    O70     O    0.84153   0.13262   0.07582   1.000
    N71     N    0.26633   0.25000   0.08004   1.000
    O72     O    0.32618   0.13261   0.07587   1.000
    O73     O    0.20605   0.27367   0.14402   1.000
    O74     O    0.21893   0.33925   0.14397   1.000
    O75     O    0.32619   0.36740   0.07587   1.000
    O76     O    0.19017   0.33466   0.02962   1.000
    O77     O    0.19016   0.16534   0.02960   1.000
    O78     O    0.20604   0.22632   0.14401   1.000
    O79     O    0.21891   0.16074   0.14396   1.000
    N80     N    0.76669   0.24999   0.41961   1.000
    O81     O    0.69033   0.33467   0.47005   1.000
    O82     O    0.84200   0.36743   0.42396   1.000
    O83     O    0.84201   0.13256   0.42396   1.000
    O84     O    0.69032   0.16531   0.47003   1.000
    O85     O    0.70649   0.22631   0.35570   1.000
    O86     O    0.71938   0.16074   0.35565   1.000
    O87     O    0.70647   0.27365   0.35572   1.000
    O88     O    0.71937   0.33924   0.35569   1.000
    N89     N    0.44828   0.06233   0.60373   1.000
    O90     O    0.47801   0.05476   0.58958   1.000
    O91     O    0.41930   0.04675   0.64029   1.000
    N92     N    0.23850   0.75000   0.91980   1.000
    O93     O    0.31477   0.66530   0.97024   1.000
    O94     O    0.29874   0.77369   0.85591   1.000
    O95     O    0.28582   0.83618   0.85588   1.000
    O96     O    0.29874   0.72633   0.85591   1.000
    O97     O    0.28584   0.66074   0.85589   1.000
    O98     O    0.31477   0.83472   0.97024   1.000
    O99     O    0.17866   0.63258   0.92406   1.000
    O100    O    0.17863   0.86742   0.92406   1.000
    O101    O    0.24497   0.85940   0.87336   1.000
    N102    N    0.94815   0.43767   0.89621   1.000
    O103    O    0.96111   0.45016   0.85966   1.000
    O104    O    0.97787   0.44524   0.91035   1.000
    N105    N    0.73859   0.75000   0.58031   1.000
    O106    O    0.79880   0.72633   0.64420   1.000
    O107    O    0.83036   0.83465   0.52983   1.000
    O108    O    0.67877   0.86743   0.57598   1.000
    O109    O    0.83037   0.66535   0.52983   1.000
    O110    O    0.79880   0.77367   0.64420   1.000
    O111    O    0.67877   0.63257   0.57599   1.000
    N112    N    0.47350   0.25003   0.25105   1.000
    O113    O    0.51036   0.25001   0.25078   1.000
    N114    N    0.94823   0.43768   0.60375   1.000
    O115    O    0.97796   0.44526   0.58961   1.000
    O116    O    0.96117   0.45017   0.64032   1.000
    N117    N    0.97359   0.25000   0.25091   1.000
    O118    O    0.01046   0.25000   0.25071   1.000
    N119    N    0.05672   0.93780   0.10375   1.000
    O120    O    0.04254   0.94537   0.08963   1.000
    O121    O    0.08568   0.95026   0.14029   1.000
    N122    N    0.05680   0.56224   0.10375   1.000
    O123    O    0.04260   0.55466   0.08963   1.000
    O124    O    0.08574   0.54976   0.14029   1.000
    N125    N    0.44826   0.43768   0.60374   1.000
    O126    O    0.47799   0.44525   0.58959   1.000
    O127    O    0.41929   0.45017   0.64031   1.000
    N128    N    0.05703   0.93763   0.39624   1.000
    O129    O    0.04277   0.94520   0.41037   1.000
    O130    O    0.08591   0.95014   0.35965   1.000
    N131    N    0.44804   0.06231   0.89615   1.000
    O132    O    0.47778   0.05474   0.91026   1.000
    O133    O    0.41911   0.04673   0.85961   1.000
    N134    N    0.55701   0.93765   0.39623   1.000
    O135    O    0.52727   0.94521   0.41037   1.000
    O136    O    0.58588   0.95016   0.35962   1.000
    N137    N    0.03150   0.75001   0.75007   1.000
    O138    O    0.99463   0.75001   0.75006   1.000
    N139    N    0.55681   0.93773   0.10372   1.000
    O140    O    0.52709   0.94531   0.08959   1.000
    O141    O    0.58573   0.95022   0.14024   1.000
    N142    N    0.55684   0.56227   0.10374   1.000
    O143    O    0.58576   0.54978   0.14027   1.000
    O144    O    0.52711   0.55469   0.08961   1.000
    N145    N    0.55701   0.56235   0.39623   1.000
    O146    O    0.52727   0.55478   0.41037   1.000
    O147    O    0.58588   0.54984   0.35964   1.000
    N148    N    0.44810   0.43769   0.89618   1.000
    O149    O    0.41917   0.45018   0.85964   1.000
    O150    O    0.47783   0.44526   0.91031   1.000
    N151    N    0.94824   0.06232   0.60374   1.000
    O152    O    0.97796   0.05475   0.58960   1.000
    O153    O    0.96118   0.04674   0.64031   1.000
    N154    N    0.05702   0.56235   0.39623   1.000
    O155    O    0.04276   0.55478   0.41037   1.000
    O156    O    0.08590   0.54985   0.35965   1.000
    N157    N    0.53146   0.75001   0.75024   1.000
    O158    O    0.49460   0.75001   0.75020   1.000
    N159    N    0.94814   0.06235   0.89620   1.000
    O160    O    0.96111   0.04676   0.85965   1.000
    O161    O    0.97785   0.05477   0.91034   1.000
loop_
    _geom_bond_atom_site_label_1
    _geom_bond_atom_site_label_2
    _geom_bond_distance
    _geom_bond_site_symmetry_2
    _ccdc_geom_bond_type
    Zr18   O28       1.12515  1_564   S
    Zr11   O28       1.12515      .   S
    Zr12   O29       1.12506  1_554   S
    Zr21   O29       1.12506      .   S
    Zr13   O30       0.95234      .   S
    Zr20   O30       0.95234  1_556   S
    Zr19   O31       0.95214  1_565   S
    Zr10   O31       0.95214  1_556   S
    Zr14   O32       1.12472      .   S
    Zr23   O32       1.12472  1_545   S
    Zr15   O33       0.95255      .   S
    Zr22   O33       0.95255  1_545   S
    Zr17   O34       0.95252      .   S
    Zr8    O34       0.95252      .   S
    Zr16   O35       1.12477      .   S
    Zr9    O35       1.12477      .   S
    N36    O37       1.25330      .   S
    Zr25   O37       1.94714      .   S
    N36    O38       1.71819      .   S
    Zr0    O38       3.05331      .   S
    N36    O39       1.67962      .   S
    Zr16   O39       2.64275      .   S
    N36    O40       1.67961      .   S
    Zr14   O40       2.64271      .   S
    N36    O41       1.81764      .   S
    Zr8    O41       2.70754      .   S
    N36    O42       1.81765      .   S
    Zr22   O42       2.70755  1_545   S
    N36    O43       1.74483      .   S
    Zr2    O43       2.97377  1_545   S
    N36    O44       1.25329      .   S
    Zr25   O44       1.94714      .   S
    N36    O45       1.68488      .   S
    Zr2    O45       2.94448  1_545   S
    N46    O47       1.25317      .   S
    Zr27   O47       1.94622      .   S
    N46    O48       1.71890      .   S
    Zr4    O48       3.05421      .   S
    N46    O49       1.81779      .   S
    Zr16   O49       2.70771      .   S
    N46    O50       1.25320      .   S
    Zr27   O50       1.94619      .   S
    N46    O51       1.71898      .   S
    Zr6    O51       3.05429  1_565   S
    N46    O52       1.67988      .   S
    Zr8    O52       2.64313      .   S
    N46    O53       1.81785      .   S
    Zr14   O53       2.70781  1_565   S
    N46    O54       1.67984      .   S
    Zr22   O54       2.64308      .   S
    N55    O56       1.76920      .   S
    Zr13   O56       2.93155  1_454   S
    N55    O57       1.81750      .   S
    Zr11   O57       2.70733  1_545   S
    N55    O58       1.76936      .   S
    Zr19   O58       2.93191  1_454   S
    N55    O59       1.25303      .   S
    Zr24   O59       1.94620      .   S
    N55    O60       1.25302      .   S
    Zr24   O60       1.94622      .   S
    N55    O61       1.81748      .   S
    Zr21   O61       2.70727      .   S
    N62    O63       1.25446      .   S
    Zr26   O63       1.94805      .   S
    N62    O64       1.71914      .   S
    Zr5    O64       3.05420      .   S
    N62    O65       1.25429      .   S
    Zr26   O65       1.94830      .   S
    N62    O66       1.71860      .   S
    Zr7    O66       3.05392  1_565   S
    N62    O67       1.88428      .   S
    Zr13   O67       2.96827  1_455   S
    N62    O68       1.67841      .   S
    Zr21   O68       2.64130  1_556   S
    N62    O69       1.67891      .   S
    Zr11   O69       2.64154  1_556   S
    N62    O70       1.88392      .   S
    Zr19   O70       2.96827  1_465   S
    N71    O72       1.81725      .   S
    Zr18   O72       2.70682  1_565   S
    N71    O73       1.25439      .   S
    Zr27   O73       1.94822      .   S
    N71    O74       1.71894      .   S
    Zr4    O74       3.05392      .   S
    N71    O75       1.81736      .   S
    Zr12   O75       2.70699      .   S
    N71    O76       1.67889      .   S
    Zr20   O76       2.64200  1_556   S
    N71    O77       1.67895      .   S
    Zr10   O77       2.64202  1_556   S
    N71    O78       1.25436      .   S
    Zr27   O78       1.94825      .   S
    N71    O79       1.71885      .   S
    Zr6    O79       3.05381  1_565   S
    N80    O81       1.68001      .   S
    Zr9    O81       2.64329      .   S
    N80    O82       1.88434      .   S
    Zr17   O82       2.96754  1_455   S
    N80    O83       1.88438      .   S
    Zr15   O83       2.96755  1_465   S
    N80    O84       1.67978      .   S
    Zr23   O84       2.64312      .   S
    N80    O85       1.25355      .   S
    Zr26   O85       1.94681      .   S
    N80    O86       1.71902      .   S
    Zr7    O86       3.05391  1_565   S
    N80    O87       1.25338      .   S
    Zr26   O87       1.94698      .   S
    N80    O88       1.71870      .   S
    Zr5    O88       3.05394      .   S
    N89    O90       0.40776      .   S
    Zr23   O90       1.22327      .   S
    N89    O91       0.69679      .   S
    Zr2    O91       2.09038      .   S
    N92    O93       1.68013      .   S
    Zr12   O93       2.64336  1_554   S
    N92    O94       1.25294      .   S
    Zr25   O94       1.94591      .   S
    N92    O95       1.68539      .   S
    Zr2    O95       2.94543  1_545   S
    N92    O96       1.25294      .   S
    Zr25   O96       1.94592      .   S
    N92    O97       1.71856      .   S
    Zr0    O97       3.05396      .   S
    N92    O98       1.68016      .   S
    Zr18   O98       2.64341  1_554   S
    N92    O99       1.81763      .   S
    Zr20   O99       2.70753      .   S
    N92    O100      1.81768      .   S
    Zr10   O100      2.70765  1_545   S
    N92    O101      1.74505      .   S
    Zr2    O101      2.97503  1_545   S
    N102   O103      0.62306      .   S
    Zr1    O103      1.86917  1_455   S
    N102   O104      0.40771      .   S
    Zr20   O104      1.22314  1_455   S
    N105   O106      1.25320      .   S
    Zr24   O106      1.94681      .   S
    N105   O107      1.76843      .   S
    Zr15   O107      2.92992  1_455   S
    N105   O108      1.81771      .   S
    Zr23   O108      2.70759  1_545   S
    N105   O109      1.76850      .   S
    Zr17   O109      2.93006  1_455   S
    N105   O110      1.25319      .   S
    Zr24   O110      1.94683      .   S
    N105   O111      1.81769      .   S
    Zr9    O111      2.70757      .   S
    N112   O113      0.39994      .   S
    Zr26   O113      1.19982      .   S
    N114   O115      0.40775      .   S
    Zr8    O115      1.22324  1_455   S
    N114   O116      0.62333      .   S
    Zr1    O116      1.86998  1_455   S
    N117   O118      0.40002  1_655   S
    Zr27   O118      1.20007      .   S
    N119   O120      0.29298      .   S
    Zr19   O120      0.87894      .   S
    N119   O121      0.68333      .   S
    Zr6    O121      2.05000      .   S
    N122   O123      0.29310      .   S
    Zr13   O123      0.87930      .   S
    N122   O124      0.68335      .   S
    Zr4    O124      2.05006      .   S
    N125   O126      0.40776      .   S
    Zr9    O126      1.22327      .   S
    N125   O127      0.68364      .   S
    Zr0    O127      2.05092      .   S
    N128   O129      0.29347      .   S
    Zr15   O129      0.88040      .   S
    N128   O130      0.68354      .   S
    Zr6    O130      2.05063      .   S
    N131   O132      0.40770      .   S
    Zr11   O132      1.22309      .   S
    N131   O133      0.69653      .   S
    Zr2    O133      2.08958      .   S
    N134   O135      0.40775      .   S
    Zr14   O135      1.22324      .   S
    N134   O136      0.68380      .   S
    Zr7    O136      2.05140      .   S
    N137   O138      0.40004  1_455   S
    Zr24   O138      1.20011      .   S
    N139   O140      0.40775      .   S
    Zr18   O140      1.22325      .   S
    N139   O141      0.68304      .   S
    Zr7    O141      2.04911      .   S
    N142   O143      0.68325      .   S
    Zr5    O143      2.04975      .   S
    N142   O144      0.40776      .   S
    Zr12   O144      1.22328      .   S
    N145   O146      0.40775      .   S
    Zr16   O146      1.22325      .   S
    N145   O147      0.68357      .   S
    Zr5    O147      2.05072      .   S
    N148   O149      0.68346      .   S
    Zr0    O149      2.05037      .   S
    N148   O150      0.40771      .   S
    Zr21   O150      1.22312      .   S
    N151   O152      0.40775      .   S
    Zr22   O152      1.22324  1_455   S
    N151   O153      0.63769      .   S
    Zr3    O153      1.91308  1_455   S
    N154   O155      0.29346      .   S
    Zr17   O155      0.88038      .   S
    N154   O156      0.68349      .   S
    Zr4    O156      2.05048      .   S
    N157   O158      0.40000      .   S
    Zr25   O158      1.20001      .   S
    N159   O160      0.63743      .   S
    Zr3    O160      1.91228  1_455   S
    N159   O161      0.40770      .   S
    Zr10   O161      1.22311  1_455   S
