# CIF file generated by openbabel 2.4.90, see http://openbabel.sf.net
data_I
_chemical_name_common ''
_cell_length_a 10.804
_cell_length_b 10.809
_cell_length_c 18.389
_cell_angle_alpha 73.81
_cell_angle_beta 73.85
_cell_angle_gamma 77.841
_space_group_name_H-M_alt 'P 1'
_space_group_name_Hall 'P 1'
loop_
    _symmetry_equiv_pos_as_xyz
    x,y,z
loop_
    _atom_site_label
    _atom_site_type_symbol
    _atom_site_fract_x
    _atom_site_fract_y
    _atom_site_fract_z
    _atom_site_occupancy
    Zr0     Zr   0.45458   0.52748   0.60151   1.000
    Zr1     Zr   0.47280   0.54508   0.89821   1.000
    Zr2     Zr   0.54500   0.47277   0.39838   1.000
    Zr3     Zr   0.52779   0.45435   0.10158   1.000
    N4      N    0.50024   0.00010   0.00006   1.000
    O5      O    0.52008   0.17202   0.04976   1.000
    O6      O    0.49012   0.22430   0.97240   1.000
    O7      O    0.50387   0.20162   0.02325   1.000
    O8      O    0.51063   0.77564   0.02771   1.000
    O9      O    0.49688   0.79832   0.97686   1.000
    O10     O    0.48064   0.82767   0.95031   1.000
    N11     N    0.44387   0.03684   0.36998   1.000
    O12     O    0.44294   0.83118   0.46378   1.000
    O13     O    0.47089   0.21955   0.26718   1.000
    O14     O    0.46564   0.23309   0.37125   1.000
    O15     O    0.48280   0.80785   0.38286   1.000
    N16     N    0.96408   0.55526   0.13176   1.000
    O17     O    0.76797   0.53326   0.12961   1.000
    O18     O    0.78096   0.52849   0.23373   1.000
    O19     O    0.16940   0.55632   0.04043   1.000
    O20     O    0.19292   0.51645   0.11789   1.000
    N21     N    0.55538   0.96413   0.62992   1.000
    O22     O    0.55627   0.16939   0.53607   1.000
    O23     O    0.51700   0.19279   0.61698   1.000
    O24     O    0.53336   0.76795   0.62863   1.000
    O25     O    0.52843   0.78110   0.73272   1.000
    N26     N    0.00011   0.49995   0.50014   1.000
    O27     O    0.22432   0.48986   0.47262   1.000
    O28     O    0.20171   0.50354   0.52340   1.000
    O29     O    0.82772   0.47998   0.45048   1.000
    O30     O    0.17207   0.51995   0.54981   1.000
    O31     O    0.77570   0.51045   0.52759   1.000
    O32     O    0.79830   0.49678   0.47681   1.000
    N33     N    0.03669   0.44412   0.86991   1.000
    O34     O    0.21951   0.47078   0.76710   1.000
    O35     O    0.80779   0.48306   0.88281   1.000
    O36     O    0.83124   0.44303   0.96379   1.000
    O37     O    0.23293   0.46587   0.87115   1.000
loop_
    _geom_bond_atom_site_label_1
    _geom_bond_atom_site_label_2
    _geom_bond_distance
    _geom_bond_site_symmetry_2
    _ccdc_geom_bond_type
    N4     O5        2.35753      .   S
    Zr3    O5        3.46428      .   S
    N4     O6        2.31852  1_554   S
    Zr1    O6        3.33899      .   S
    N4     O7        2.34334      .   S
    Zr3    O7        3.50758      .   S
    N4     O8        2.32095  1_545   S
    Zr3    O8        3.34338      .   S
    N4     O9        2.34543  1_544   S
    Zr1    O9        3.51709      .   S
    N4     O10       2.36224  1_544   S
    Zr1    O10       3.47016      .   S
    N11    O12       2.40391  1_545   S
    Zr0    O12       3.54588      .   S
    N11    O13       2.32655      .   S
    Zr3    O13       3.37616      .   S
    N11    O14       2.19011      .   S
    Zr2    O14       3.09673      .   S
    N11    O15       2.37684  1_545   S
    Zr2    O15       3.48657      .   S
    N16    O17       2.19359      .   S
    Zr3    O17       3.10611      .   S
    N16    O18       2.32146      .   S
    Zr2    O18       3.37120      .   S
    N16    O19       2.38091  1_655   S
    Zr1    O19       3.58327  1_556   S
    N16    O20       2.37181  1_655   S
    Zr3    O20       3.48076      .   S
    N21    O22       2.40111  1_565   S
    Zr2    O22       3.54292      .   S
    N21    O23       2.37325  1_565   S
    Zr0    O23       3.48256      .   S
    N21    O24       2.19034      .   S
    Zr0    O24       3.10167      .   S
    N21    O25       2.32874      .   S
    Zr1    O25       3.38085      .   S
    N26    O27       2.31802      .   S
    Zr2    O27       3.33785      .   S
    N26    O28       2.34343      .   S
    Zr0    O28       3.50448      .   S
    N26    O29       2.36120  1_455   S
    Zr2    O29       3.46756      .   S
    N26    O30       2.35698      .   S
    Zr0    O30       3.46250      .   S
    N26    O31       2.31978  1_455   S
    Zr0    O31       3.34139      .   S
    N26    O32       2.34508  1_455   S
    Zr2    O32       3.51291      .   S
    N33    O34       2.32755      .   S
    Zr0    O34       3.37796      .   S
    N33    O35       2.37492  1_455   S
    Zr1    O35       3.48450      .   S
    N33    O36       2.40315  1_455   S
    Zr3    O36       3.54495  1_554   S
    N33    O37       2.18882      .   S
    Zr1    O37       3.09618      .   S
