# CIF file generated by openbabel 2.4.90, see http://openbabel.sf.net
data_I
_chemical_name_common ''
_cell_length_a 20.521
_cell_length_b 16.616
_cell_length_c 19.798
_cell_angle_alpha 89.965
_cell_angle_beta 101.651
_cell_angle_gamma 90.041
_space_group_name_H-M_alt 'P 1'
_space_group_name_Hall 'P 1'
loop_
    _symmetry_equiv_pos_as_xyz
    x,y,z
loop_
    _atom_site_label
    _atom_site_type_symbol
    _atom_site_fract_x
    _atom_site_fract_y
    _atom_site_fract_z
    _atom_site_occupancy
    H0      H    0.45284   0.19941   0.70839   1.000
    H1      H    0.95287   0.19937   0.70841   1.000
    H2      H    0.10183   0.26933   0.88379   1.000
    H3      H    0.60183   0.26933   0.88376   1.000
    H4      H    0.02067   0.25494   0.95984   1.000
    H5      H    0.52068   0.25494   0.95982   1.000
    H6      H    0.18978   0.18445   0.87293   1.000
    H7      H    0.68978   0.18442   0.87290   1.000
    H8      H    0.22664   0.08761   0.89118   1.000
    H9      H    0.72664   0.08759   0.89119   1.000
    H10     H    0.18072   0.19792   0.99794   1.000
    H11     H    0.68070   0.19792   0.99793   1.000
    H12     H    0.13628   0.11283   0.95813   1.000
    H13     H    0.63628   0.11281   0.95813   1.000
    H14     H    0.21523   0.09997   0.00000   1.000
    H15     H    0.71523   0.09998   0.00000   1.000
    H16     H    0.25442   0.16424   0.80002   1.000
    H17     H    0.75442   0.16423   0.80002   1.000
    H18     H    0.38896   0.07068   0.97105   1.000
    H19     H    0.88894   0.07068   0.97105   1.000
    H20     H    0.39777   0.96073   0.05689   1.000
    H21     H    0.89775   0.96073   0.05690   1.000
    H22     H    0.45963   0.12979   0.22194   1.000
    H23     H    0.95962   0.12980   0.22190   1.000
    H24     H    0.45914   0.38507   0.10977   1.000
    H25     H    0.95913   0.38507   0.10977   1.000
    H26     H    0.48806   0.45127   0.01502   1.000
    H27     H    0.98805   0.45127   0.01502   1.000
    H28     H    0.40626   0.46854   0.03030   1.000
    H29     H    0.90624   0.46854   0.03029   1.000
    H30     H    0.36478   0.49894   0.90540   1.000
    H31     H    0.86478   0.49893   0.90540   1.000
    H32     H    0.43435   0.56180   0.93909   1.000
    H33     H    0.93434   0.56180   0.93909   1.000
    H34     H    0.44472   0.47697   0.88778   1.000
    H35     H    0.94472   0.47697   0.88778   1.000
    H36     H    0.04718   0.69937   0.29159   1.000
    H37     H    0.54716   0.69936   0.29161   1.000
    H38     H    0.39823   0.76931   0.11621   1.000
    H39     H    0.89824   0.76935   0.11620   1.000
    H40     H    0.47935   0.75495   0.04015   1.000
    H41     H    0.97935   0.75498   0.04013   1.000
    H42     H    0.31019   0.68446   0.12705   1.000
    H43     H    0.81019   0.68446   0.12708   1.000
    H44     H    0.27323   0.58762   0.10889   1.000
    H45     H    0.77324   0.58762   0.10890   1.000
    H46     H    0.31929   0.69791   0.00000   1.000
    H47     H    0.81930   0.69791   0.00000   1.000
    H48     H    0.36363   0.61281   0.04194   1.000
    H49     H    0.86364   0.61281   0.04197   1.000
    H50     H    0.28468   0.59995   0.98536   1.000
    H51     H    0.78468   0.59995   0.98539   1.000
    H52     H    0.24554   0.66424   0.19995   1.000
    H53     H    0.74554   0.66425   0.19999   1.000
    H54     H    0.11101   0.57075   0.02900   1.000
    H55     H    0.61102   0.57073   0.02900   1.000
    H56     H    0.10222   0.46087   0.94323   1.000
    H57     H    0.60224   0.46085   0.94325   1.000
    H58     H    0.04042   0.62992   0.77807   1.000
    H59     H    0.54040   0.62990   0.77810   1.000
    H60     H    0.04083   0.88513   0.89009   1.000
    H61     H    0.54082   0.88510   0.89012   1.000
    H62     H    0.01190   0.95119   0.98480   1.000
    H63     H    0.51190   0.95117   0.98486   1.000
    H64     H    0.09369   0.96869   0.96954   1.000
    H65     H    0.59370   0.96866   0.96957   1.000
    H66     H    0.13514   0.99903   0.09444   1.000
    H67     H    0.63515   0.99900   0.09447   1.000
    H68     H    0.06557   0.06179   0.06071   1.000
    H69     H    0.56559   0.06176   0.06070   1.000
    H70     H    0.05520   0.97687   0.11205   1.000
    H71     H    0.55521   0.97684   0.11208   1.000
    C72     C    0.58209   0.70820   0.19497   1.000
    C73     C    0.03358   0.71319   0.23680   1.000
    C74     C    0.53357   0.71317   0.23686   1.000
    C75     C    0.46904   0.73447   0.20832   1.000
    C76     C    0.35007   0.18755   0.77763   1.000
    C77     C    0.85008   0.18753   0.77764   1.000
    C78     C    0.41791   0.20821   0.80500   1.000
    C79     C    0.91792   0.20820   0.80504   1.000
    C80     C    0.46645   0.21320   0.76313   1.000
    C81     C    0.96646   0.21318   0.76315   1.000
    C82     C    0.03100   0.23449   0.79169   1.000
    C83     C    0.53099   0.23451   0.79167   1.000
    C84     C    0.05081   0.25114   0.86282   1.000
    C85     C    0.55081   0.25114   0.86280   1.000
    C86     C    0.00522   0.24382   0.90472   1.000
    C87     C    0.50522   0.24383   0.90470   1.000
    Cl88    Cl   0.09042   0.24063   0.73989   1.000
    C89     C    0.43785   0.22217   0.87804   1.000
    C90     C    0.93785   0.22216   0.87805   1.000
    C91     C    0.39143   0.21359   0.92227   1.000
    C92     C    0.89143   0.21359   0.92227   1.000
    C93     C    0.32624   0.19073   0.89370   1.000
    C94     C    0.82623   0.19072   0.89372   1.000
    C95     C    0.21957   0.14692   0.91370   1.000
    C96     C    0.71957   0.14691   0.91370   1.000
    C97     C    0.18614   0.13884   0.97487   1.000
    C98     C    0.68613   0.13884   0.97487   1.000
    C99     C    0.30619   0.17816   0.82196   1.000
    C100    C    0.80619   0.17815   0.82196   1.000
    C101    C    0.41174   0.22915   0.99748   1.000
    C102    C    0.91172   0.22915   0.99748   1.000
    C103    C    0.41779   0.16539   0.04645   1.000
    C104    C    0.91778   0.16539   0.04645   1.000
    C105    C    0.40393   0.08410   0.02583   1.000
    C106    C    0.90392   0.08409   0.02583   1.000
    C107    C    0.40874   0.02271   0.07329   1.000
    C108    C    0.90872   0.02271   0.07330   1.000
    C109    C    0.42869   0.04005   0.14439   1.000
    C110    C    0.92868   0.04006   0.14440   1.000
    C111    C    0.44376   0.11747   0.16708   1.000
    C112    C    0.94375   0.11748   0.16709   1.000
    C113    C    0.43857   0.18180   0.11898   1.000
    C114    C    0.93856   0.18180   0.11898   1.000
    C115    C    0.45396   0.26266   0.14050   1.000
    C116    C    0.95395   0.26266   0.14050   1.000
    C117    C    0.44756   0.32376   0.09203   1.000
    C118    C    0.94755   0.32376   0.09203   1.000
    C119    C    0.42563   0.30782   0.02088   1.000
    C120    C    0.92562   0.30782   0.02088   1.000
    C121    C    0.43455   0.44843   0.99159   1.000
    C122    C    0.93454   0.44842   0.99159   1.000
    C123    C    0.41844   0.49942   0.92703   1.000
    C124    C    0.91843   0.49941   0.92702   1.000
    C125    C    0.14992   0.68755   0.22234   1.000
    C126    C    0.64991   0.68755   0.22237   1.000
    C127    C    0.08210   0.70822   0.19494   1.000
    C128    C    0.96905   0.73450   0.20831   1.000
    C129    C    0.44924   0.75112   0.13718   1.000
    C130    C    0.94925   0.75116   0.13717   1.000
    C131    C    0.49482   0.74383   0.09520   1.000
    C132    C    0.99482   0.74386   0.09526   1.000
    C133    C    0.06217   0.72219   0.12192   1.000
    C134    C    0.56216   0.72217   0.12194   1.000
    C135    C    0.10858   0.71363   0.07769   1.000
    C136    C    0.60857   0.71361   0.07770   1.000
    C137    C    0.17374   0.69074   0.10624   1.000
    C138    C    0.67374   0.69074   0.10627   1.000
    C139    C    0.28037   0.64693   0.08632   1.000
    C140    C    0.78037   0.64693   0.08635   1.000
    C141    C    0.31380   0.63883   0.02516   1.000
    C142    C    0.81381   0.63883   0.02519   1.000
    C143    C    0.19378   0.67816   0.17801   1.000
    C144    C    0.69378   0.67817   0.17800   1.000
    C145    C    0.08827   0.72921   0.00247   1.000
    C146    C    0.58827   0.72919   0.00250   1.000
    C147    C    0.08222   0.66548   0.95354   1.000
    C148    C    0.58221   0.66546   0.95357   1.000
    C149    C    0.09606   0.58419   0.97421   1.000
    C150    C    0.59607   0.58417   0.97424   1.000
    C151    C    0.09127   0.52282   0.92679   1.000
    C152    C    0.59128   0.52280   0.92681   1.000
    C153    C    0.07134   0.54019   0.85567   1.000
    C154    C    0.57134   0.54017   0.85500   1.000
    C155    C    0.05627   0.61760   0.83294   1.000
    C156    C    0.55625   0.61757   0.83296   1.000
    C157    C    0.06144   0.68190   0.88100   1.000
    C158    C    0.56143   0.68188   0.88103   1.000
    C159    C    0.04604   0.76275   0.85943   1.000
    C160    C    0.54601   0.76272   0.85946   1.000
    C161    C    0.05242   0.82382   0.90786   1.000
    C162    C    0.55241   0.82380   0.90789   1.000
    C163    C    0.07437   0.80789   0.97902   1.000
    C164    C    0.57436   0.80787   0.97905   1.000
    C165    C    0.06541   0.94845   0.00826   1.000
    C166    C    0.56541   0.94842   0.00829   1.000
    C167    C    0.08149   0.99942   0.07280   1.000
    C168    C    0.58150   0.99939   0.07284   1.000
    Cl169   Cl   0.59040   0.24065   0.73986   1.000
    Cl170   Cl   0.43484   0.96091   0.20325   1.000
    Cl171   Cl   0.93483   0.96091   0.20326   1.000
    Cl172   Cl   0.40964   0.74058   0.26013   1.000
    Cl173   Cl   0.90966   0.74061   0.26013   1.000
    Cl174   Cl   0.06521   0.46109   0.79687   1.000
    Cl175   Cl   0.56521   0.46107   0.79680   1.000
    O176    O    0.28363   0.18380   0.93825   1.000
    O177    O    0.78362   0.18379   0.93825   1.000
    O178    O    0.41660   0.36660   0.97171   1.000
    O179    O    0.91660   0.36659   0.97170   1.000
    O180    O    0.21635   0.68380   0.06172   1.000
    O181    O    0.71635   0.68380   0.06175   1.000
    O182    O    0.08340   0.86664   0.02817   1.000
    O183    O    0.58340   0.86661   0.02800   1.000
loop_
    _geom_bond_atom_site_label_1
    _geom_bond_atom_site_label_2
    _geom_bond_distance
    _geom_bond_site_symmetry_2
    _ccdc_geom_bond_type
    H46    C141      1.11645      .   S
    H14    C97       0.94935  1_554   S
    H15    C98       0.94924  1_554   S
    H47    C142      1.11670      .   S
    C145   C135      1.48573      .   S
    C145   C147      1.42402  1_554   S
    C145   C163      1.39725  1_554   S
    C146   C136      1.48535      .   S
    C146   C148      1.42400  1_554   S
    C146   C164      1.39724  1_554   S
    C165   O182      1.44249      .   S
    C165   C167      1.51315      .   S
    C165   H64       1.10310  1_554   S
    C165   H62       1.10343  1_554   S
    C166   O183      1.44164      .   S
    C166   C168      1.51328      .   S
    C166   H65       1.10306  1_554   S
    C166   H63       1.10332  1_554   S
    H26    C121      1.10330  1_554   S
    H27    C122      1.10329  1_554   S
    C119   C117      1.41460      .   S
    C119   O178      1.36449  1_554   S
    C119   C101      1.39702  1_554   S
    C120   C118      1.41461      .   S
    C120   O179      1.36460  1_554   S
    C120   C102      1.39703  1_554   S
    C141   H48       1.09818      .   S
    C141   C139      1.51359      .   S
    C141   H50       1.09784  1_554   S
    C142   H49       1.09818      .   S
    C142   C140      1.51358      .   S
    C142   H51       1.09784  1_554   S
    C106   C104      1.42313      .   S
    C106   C108      1.37657      .   S
    C106   H19       1.08901  1_554   S
    C105   C103      1.42312      .   S
    C105   C107      1.37647      .   S
    C105   H18       1.08900  1_554   S
    O183   C164      1.36185  1_554   S
    O182   C163      1.36460  1_554   S
    H55    C150      1.08850  1_554   S
    H54    C149      1.08905  1_554   S
    H29    C122      1.10287  1_554   S
    H28    C121      1.10297  1_554   S
    H41    C132      1.08909      .   S
    H40    C131      1.08758      .   S
    C103   C113      1.43915      .   S
    C103   C101      1.42413  1_554   S
    C104   C114      1.43917      .   S
    C104   C102      1.42412  1_554   S
    H20    C107      1.08957  1_565   S
    H21    C108      1.08959  1_565   S
    H69    C168      1.09855  1_545   S
    H68    C167      1.09836  1_545   S
    O180   C139      1.44255      .   S
    O180   C137      1.36603      .   S
    O181   C140      1.44255      .   S
    O181   C138      1.36608      .   S
    C167   H66       1.09785      .   S
    C167   H70       1.09728      .   S
    C168   H67       1.09785      .   S
    C168   H71       1.09708      .   S
    C107   C109      1.41411      .   S
    C108   C110      1.41413      .   S
    C135   C137      1.39565      .   S
    C135   C133      1.42518      .   S
    C136   C138      1.39569      .   S
    C136   C134      1.42539      .   S
    C139   H44       1.10358      .   S
    C139   H42       1.10200      .   S
    C140   H45       1.10339      .   S
    C140   H43       1.10203      .   S
    C118   H25       1.08815      .   S
    C118   C116      1.38446      .   S
    C117   H24       1.08814      .   S
    C117   C115      1.38449      .   S
    C131   C134      1.42288      .   S
    C131   C129      1.37643      .   S
    C132   C133      1.42265  1_655   S
    C132   C130      1.37534      .   S
    C137   C143      1.41263      .   S
    C138   C144      1.41185      .   S
    H39    C130      1.08814      .   S
    H38    C129      1.08813      .   S
    C113   C115      1.42551      .   S
    C113   C111      1.42079      .   S
    C114   C116      1.42553      .   S
    C114   C112      1.42086      .   S
    C133   C127      1.43947      .   S
    C134   C72       1.43962      .   S
    C130   C128      1.41207      .   S
    C129   C75       1.41204      .   S
    C109   C111      1.37709      .   S
    C109   Cl170     1.74420  1_545   S
    C110   C112      1.37712      .   S
    C110   Cl171     1.74416  1_545   S
    C111   H22       1.08852      .   S
    C112   H23       1.08761      .   S
    C144   H53       1.08837      .   S
    C144   C126      1.38789      .   S
    C143   H52       1.08818      .   S
    C143   C125      1.38722      .   S
    C127   C125      1.42984      .   S
    C127   C73       1.42076      .   S
    C72    C126      1.42983      .   S
    C72    C74       1.42127      .   S
    C128   C73       1.37685  1_655   S
    C128   Cl173     1.74749      .   S
    C75    C74       1.37702      .   S
    C75    Cl172     1.74746      .   S
    C73    H36       1.08847      .   S
    C74    H37       1.08770      .   S
    H0     C80       1.08766      .   S
    H1     C81       1.08768      .   S
    Cl169  C83       1.74752      .   S
    Cl88   C82       1.74749      .   S
    C80    C83       1.37705      .   S
    C80    C78       1.42101      .   S
    C81    C82       1.37704  1_655   S
    C81    C79       1.42140      .   S
    C76    C78       1.42978      .   S
    C76    C99       1.38726      .   S
    C77    C79       1.42986      .   S
    C77    C100      1.38721      .   S
    H58    C155      1.08853      .   S
    H59    C156      1.08837      .   S
    C83    C85       1.41204      .   S
    C82    C84       1.41206      .   S
    Cl175  C154      1.73603      .   S
    Cl174  C153      1.74381      .   S
    H17    C100      1.08819      .   S
    H16    C99       1.08821      .   S
    C78    C89       1.43999      .   S
    C79    C90       1.43943      .   S
    C100   C94       1.41259      .   S
    C99    C93       1.41222      .   S
    C155   C153      1.37705      .   S
    C155   C157      1.42079      .   S
    C156   C154      1.37328      .   S
    C156   C158      1.42089      .   S
    C154   C152      1.42708      .   S
    C153   C151      1.41425      .   S
    C159   C157      1.42555      .   S
    C159   C161      1.38445      .   S
    C160   C158      1.42557      .   S
    C160   C162      1.38444      .   S
    C85    H3        1.08813      .   S
    C85    C87       1.37527      .   S
    C84    H2        1.08816      .   S
    C84    C86       1.37535      .   S
    H7     C96       1.10237      .   S
    H6     C95       1.10209      .   S
    C89    C87       1.42262      .   S
    C89    C91       1.42518      .   S
    C90    C86       1.42268  1_655   S
    C90    C92       1.42510      .   S
    C157   C147      1.43915      .   S
    C158   C148      1.43917      .   S
    H34    C123      1.09718      .   S
    H35    C124      1.09706      .   S
    H60    C161      1.08810      .   S
    H61    C162      1.08813      .   S
    H8     C95       1.10363      .   S
    H9     C96       1.10364      .   S
    C93    C91       1.39570      .   S
    C93    O176      1.36638      .   S
    C94    C92       1.39560      .   S
    C94    O177      1.36612      .   S
    C87    H5        1.08901      .   S
    C86    H4        1.08902      .   S
    H31    C124      1.09783      .   S
    H30    C123      1.09787      .   S
    C161   C163      1.41463      .   S
    C162   C164      1.41466      .   S
    C95    O176      1.44249      .   S
    C95    C97       1.51348      .   S
    C96    O177      1.44250      .   S
    C96    C98       1.51347      .   S
    C92    C102      1.48570      .   S
    C91    C101      1.48570      .   S
    C151   H56       1.08929      .   S
    C151   C149      1.37643      .   S
    C152   H57       1.08929      .   S
    C152   C150      1.37654      .   S
    C124   H33       1.09838      .   S
    C124   C122      1.51318      .   S
    C123   H32       1.09837      .   S
    C123   C121      1.51301      .   S
    C147   C149      1.42312      .   S
    C148   C150      1.42314      .   S
    H13    C98       1.09817      .   S
    H12    C97       1.09814      .   S
    O179   C122      1.44255      .   S
    O178   C121      1.44250      .   S
    C97    H10       1.09810      .   S
    C98    H11       1.09812      .   S
