# CIF file generated by openbabel 2.4.90, see http://openbabel.sf.net
data_I
_chemical_name_common ''
_cell_length_a 20.521
_cell_length_b 16.616
_cell_length_c 19.798
_cell_angle_alpha 89.965
_cell_angle_beta 101.651
_cell_angle_gamma 90.041
_space_group_name_H-M_alt 'P 1'
_space_group_name_Hall 'P 1'
loop_
    _symmetry_equiv_pos_as_xyz
    x,y,z
loop_
    _atom_site_label
    _atom_site_type_symbol
    _atom_site_fract_x
    _atom_site_fract_y
    _atom_site_fract_z
    _atom_site_occupancy
    Lv0     Lv   0.69912   0.66990   0.35231   1.000
    Lv1     Lv   0.50129   0.80950   0.71629   1.000
    Lv2     Lv   0.49867   0.30955   0.28361   1.000
    Lv3     Lv   0.30089   0.16986   0.64770   1.000
    Lv4     Lv   0.19914   0.66990   0.35226   1.000
    Lv5     Lv   0.00130   0.80950   0.71617   1.000
    Lv6     Lv   0.99867   0.30956   0.28360   1.000
    Lv7     Lv   0.80092   0.16985   0.64770   1.000
