# CIF file generated by openbabel 2.4.90, see http://openbabel.sf.net
data_I
_chemical_name_common ''
_cell_length_a 20.521
_cell_length_b 16.616
_cell_length_c 19.798
_cell_angle_alpha 89.965
_cell_angle_beta 101.651
_cell_angle_gamma 90.041
_space_group_name_H-M_alt 'P 1'
_space_group_name_Hall 'P 1'
loop_
    _symmetry_equiv_pos_as_xyz
    x,y,z
loop_
    _atom_site_label
    _atom_site_type_symbol
    _atom_site_fract_x
    _atom_site_fract_y
    _atom_site_fract_z
    _atom_site_occupancy
    H0      H    0.28245   0.05870   0.71459   1.000
    H1      H    0.78244   0.05870   0.71459   1.000
    H2      H    0.35894   0.29183   0.67161   1.000
    H3      H    0.85898   0.29181   0.67162   1.000
    H4      H    0.08182   0.28166   0.21124   1.000
    H5      H    0.58183   0.28166   0.21125   1.000
    H6      H    0.03707   0.35793   0.40401   1.000
    H7      H    0.53706   0.35791   0.40402   1.000
    H8      H    0.37788   0.28963   0.23650   1.000
    H9      H    0.87788   0.28966   0.23650   1.000
    H10     H    0.21754   0.55877   0.28546   1.000
    H11     H    0.71754   0.55878   0.28550   1.000
    H12     H    0.14109   0.79179   0.32828   1.000
    H13     H    0.64107   0.79179   0.32832   1.000
    H14     H    0.41814   0.78177   0.78875   1.000
    H15     H    0.91817   0.78180   0.78874   1.000
    H16     H    0.46292   0.85781   0.59583   1.000
    H17     H    0.96291   0.85778   0.59500   1.000
    H18     H    0.12207   0.78946   0.76325   1.000
    H19     H    0.62206   0.78947   0.76331   1.000
    C20     C    0.30218   0.22853   0.58442   1.000
    C21     C    0.80222   0.22852   0.58443   1.000
    C22     C    0.26495   0.16006   0.56524   1.000
    C23     C    0.76498   0.16005   0.56524   1.000
    C24     C    0.25650   0.09841   0.60916   1.000
    C25     C    0.75651   0.09840   0.60916   1.000
    C26     C    0.28735   0.10743   0.67905   1.000
    C27     C    0.78736   0.10743   0.67905   1.000
    C28     C    0.32359   0.17698   0.70268   1.000
    C29     C    0.82361   0.17697   0.70269   1.000
    C30     C    0.33120   0.23699   0.65483   1.000
    C31     C    0.83123   0.23697   0.65483   1.000
    C32     C    0.47693   0.28405   0.21461   1.000
    C33     C    0.97692   0.28406   0.21460   1.000
    C34     C    0.04484   0.29375   0.24245   1.000
    C35     C    0.54485   0.29375   0.24246   1.000
    C36     C    0.06644   0.31962   0.31067   1.000
    C37     C    0.56644   0.31961   0.31068   1.000
    C38     C    0.01997   0.33647   0.35151   1.000
    C39     C    0.51997   0.33644   0.35152   1.000
    C40     C    0.45218   0.32483   0.32476   1.000
    C41     C    0.95218   0.32487   0.32475   1.000
    C42     C    0.43091   0.29804   0.25665   1.000
    C43     C    0.93090   0.29806   0.25665   1.000
    C44     C    0.19787   0.72855   0.41549   1.000
    C45     C    0.69785   0.72855   0.41553   1.000
    C46     C    0.23512   0.66013   0.43472   1.000
    C47     C    0.73510   0.66013   0.43476   1.000
    C48     C    0.24356   0.59851   0.39085   1.000
    C49     C    0.74355   0.59852   0.39089   1.000
    C50     C    0.21266   0.60749   0.32090   1.000
    C51     C    0.71265   0.60750   0.32100   1.000
    C52     C    0.17641   0.67699   0.29729   1.000
    C53     C    0.67640   0.67700   0.29732   1.000
    C54     C    0.16883   0.73697   0.34509   1.000
    C55     C    0.66881   0.73698   0.34513   1.000
    C56     C    0.02305   0.78410   0.78530   1.000
    C57     C    0.52303   0.78408   0.78530   1.000
    C58     C    0.45511   0.79382   0.75751   1.000
    C59     C    0.95513   0.79384   0.75749   1.000
    C60     C    0.43353   0.81962   0.68924   1.000
    C61     C    0.93354   0.81963   0.68922   1.000
    C62     C    0.48000   0.83636   0.64835   1.000
    C63     C    0.97999   0.83635   0.64832   1.000
    C64     C    0.04777   0.82462   0.67503   1.000
    C65     C    0.54777   0.82464   0.67508   1.000
    C66     C    0.06906   0.79793   0.74318   1.000
    C67     C    0.56904   0.79794   0.74323   1.000
loop_
    _geom_bond_atom_site_label_1
    _geom_bond_atom_site_label_2
    _geom_bond_distance
    _geom_bond_site_symmetry_2
    _ccdc_geom_bond_type
    H4     C34       1.08973      .   S
    H5     C35       1.08976      .   S
    C33    C34       1.40083  1_655   S
    C33    C43       1.39894      .   S
    C32    C35       1.40080      .   S
    C32    C42       1.39882      .   S
    H8     C42       1.08958      .   S
    H9     C43       1.08959      .   S
    C34    C36       1.40142      .   S
    C35    C37       1.40136      .   S
    C43    C41       1.40336      .   S
    C42    C40       1.40345      .   S
    H10    C50       1.08943      .   S
    H11    C51       1.09020      .   S
    C52    C50       1.40190      .   S
    C52    C54       1.40503      .   S
    C53    C51       1.40222      .   S
    C53    C55       1.40514      .   S
    C36    C38       1.39759      .   S
    C37    C39       1.39765      .   S
    C50    C48       1.40977      .   S
    C51    C49       1.40868      .   S
    C41    C38       1.39833  1_655   S
    C40    C39       1.39827      .   S
    H12    C54       1.09003      .   S
    H13    C55       1.09003      .   S
    C54    C44       1.40775      .   S
    C55    C45       1.40773      .   S
    C38    H6        1.08793      .   S
    C39    H7        1.08792      .   S
    C48    C46       1.37656      .   S
    C49    C47       1.37653      .   S
    C44    C46       1.38011      .   S
    C45    C47       1.38010      .   S
    C23    C21       1.38006      .   S
    C23    C25       1.37663      .   S
    C22    C20       1.38004      .   S
    C22    C24       1.37662      .   S
    C20    C30       1.40795      .   S
    C21    C31       1.40774      .   S
    H17    C63       1.10197      .   S
    H16    C62       1.08789      .   S
    C24    C26       1.40863      .   S
    C25    C27       1.40858      .   S
    C63    C64       1.39830  1_655   S
    C63    C61       1.39751      .   S
    C62    C65       1.39831      .   S
    C62    C60       1.39760      .   S
    C30    H2        1.09006      .   S
    C30    C28       1.40506      .   S
    C31    H3        1.09008      .   S
    C31    C29       1.40524      .   S
    C64    C66       1.40333      .   S
    C65    C67       1.40337      .   S
    C27    C29       1.40227      .   S
    C27    H1        1.09031      .   S
    C26    C28       1.40226      .   S
    C26    H0        1.09028      .   S
    C61    C59       1.40159      .   S
    C60    C58       1.40163      .   S
    C66    H18       1.08943      .   S
    C66    C56       1.39887      .   S
    C67    H19       1.08943      .   S
    C67    C57       1.39836      .   S
    C59    C56       1.40084  1_655   S
    C59    H15       1.08961      .   S
    C58    C57       1.40069      .   S
    C58    H14       1.08965      .   S
