# CIF file generated by openbabel 2.4.90, see http://openbabel.sf.net
data_I
_chemical_name_common ''
_cell_length_a 20.521
_cell_length_b 16.616
_cell_length_c 19.798
_cell_angle_alpha 89.965
_cell_angle_beta 101.651
_cell_angle_gamma 90.041
_space_group_name_H-M_alt 'P 1'
_space_group_name_Hall 'P 1'
loop_
    _symmetry_equiv_pos_as_xyz
    x,y,z
loop_
    _atom_site_label
    _atom_site_type_symbol
    _atom_site_fract_x
    _atom_site_fract_y
    _atom_site_fract_z
    _atom_site_occupancy
    Zn0     Zn   0.75862   0.34011   0.37988   1.000
    Zn1     Zn   0.36370   0.41981   0.48070   1.000
    Zn2     Zn   0.86370   0.41981   0.48070   1.000
    Zn3     Zn   0.24135   0.84001   0.62002   1.000
    Zn4     Zn   0.74135   0.84002   0.62005   1.000
    Zn5     Zn   0.13635   0.91970   0.51912   1.000
    Zn6     Zn   0.63635   0.91971   0.51915   1.000
    Zn7     Zn   0.25862   0.34010   0.37986   1.000
    C8      C    0.31131   0.29003   0.53260   1.000
    C9      C    0.81135   0.29002   0.53260   1.000
    C10     C    0.21833   0.02432   0.58570   1.000
    C11     C    0.71834   0.02433   0.58572   1.000
    C12     C    0.36122   0.82981   0.65980   1.000
    C13     C    0.86123   0.82981   0.65983   1.000
    C14     C    0.09826   0.84191   0.63242   1.000
    C15     C    0.59827   0.84196   0.63249   1.000
    C16     C    0.13875   0.32979   0.34007   1.000
    C17     C    0.63875   0.32978   0.34009   1.000
    C18     C    0.40166   0.34237   0.36724   1.000
    C19     C    0.90166   0.34242   0.36723   1.000
    C20     C    0.18877   0.79003   0.46728   1.000
    C21     C    0.68875   0.79002   0.46731   1.000
    C22     C    0.28174   0.52446   0.41428   1.000
    C23     C    0.78173   0.52447   0.41430   1.000
    O24     O    0.28349   0.27788   0.47037   1.000
    O25     O    0.78351   0.27789   0.47038   1.000
    O26     O    0.34808   0.35132   0.55479   1.000
    O27     O    0.84813   0.35130   0.55480   1.000
    O28     O    0.17889   0.02488   0.52608   1.000
    O29     O    0.67889   0.02489   0.52608   1.000
    O30     O    0.22495   0.96375   0.62567   1.000
    O31     O    0.72495   0.96376   0.62567   1.000
    O32     O    0.18151   0.30555   0.30460   1.000
    O33     O    0.68152   0.30555   0.30469   1.000
    O34     O    0.15805   0.36147   0.39899   1.000
    O35     O    0.65805   0.36147   0.39901   1.000
    O36     O    0.42247   0.38185   0.42384   1.000
    O37     O    0.92248   0.38186   0.42385   1.000
    O38     O    0.34270   0.31818   0.34507   1.000
    O39     O    0.84268   0.31830   0.34503   1.000
    O40     O    0.21662   0.77789   0.52949   1.000
    O41     O    0.71659   0.77788   0.52953   1.000
    O42     O    0.15201   0.85129   0.44506   1.000
    O43     O    0.65199   0.85129   0.44510   1.000
    O44     O    0.32130   0.52499   0.47386   1.000
    O45     O    0.82129   0.52499   0.47390   1.000
    O46     O    0.27503   0.46395   0.37436   1.000
    O47     O    0.77502   0.46396   0.37439   1.000
    O48     O    0.31843   0.80555   0.69520   1.000
    O49     O    0.81844   0.80556   0.69525   1.000
    O50     O    0.34196   0.86150   0.60089   1.000
    O51     O    0.84196   0.86150   0.60089   1.000
    O52     O    0.07755   0.88182   0.57601   1.000
    O53     O    0.57756   0.88182   0.57606   1.000
    O54     O    0.15707   0.81710   0.65430   1.000
    O55     O    0.65709   0.81719   0.65440   1.000
    Og56    Og   0.30827   0.26953   0.54987   1.000
    Og57    Og   0.80831   0.26952   0.54988   1.000
    Og58    Og   0.23105   0.04902   0.59352   1.000
    Og59    Og   0.73106   0.04902   0.59353   1.000
    Og60    Og   0.38532   0.82641   0.66961   1.000
    Og61    Og   0.88533   0.82642   0.66963   1.000
    Og62    Og   0.08143   0.83615   0.64662   1.000
    Og63    Og   0.58144   0.83618   0.64669   1.000
    Og64    Og   0.11465   0.32640   0.33027   1.000
    Og65    Og   0.61465   0.32639   0.33029   1.000
    Og66    Og   0.41850   0.33652   0.35308   1.000
    Og67    Og   0.91850   0.33657   0.35307   1.000
    Og68    Og   0.19180   0.76953   0.45002   1.000
    Og69    Og   0.69178   0.76953   0.45005   1.000
    Og70    Og   0.26902   0.54915   0.40647   1.000
    Og71    Og   0.76901   0.54915   0.40650   1.000
loop_
    _geom_bond_atom_site_label_1
    _geom_bond_atom_site_label_2
    _geom_bond_distance
    _geom_bond_site_symmetry_2
    _ccdc_geom_bond_type
    O32    C16       1.29427      .   S
    O32    Zn7       2.02507      .   S
    O33    C17       1.29335      .   S
    O33    Zn0       2.02427      .   S
    C16    O34       1.26830      .   S
    C17    O35       1.26829      .   S
    O39    C19       1.26624      .   S
    O39    Zn0       2.01621      .   S
    O38    C18       1.26623      .   S
    O38    Zn7       2.01623      .   S
    C19    O37       1.29438      .   S
    C18    O36       1.29442      .   S
    O46    Zn7       2.09131      .   S
    O46    C22       1.26946      .   S
    O47    Zn0       2.09134      .   S
    O47    C23       1.26927      .   S
    Zn7    O34       2.20126      .   S
    Zn7    O24       2.04189      .   S
    Zn0    O35       2.20132      .   S
    Zn0    O25       2.04179      .   S
    C22    O44       1.28979      .   S
    C23    O45       1.29009      .   S
    O36    Zn1       1.91564      .   S
    O37    Zn2       1.91563      .   S
    O42    C20       1.29051      .   S
    O42    Zn5       1.93341      .   S
    O43    C21       1.29046      .   S
    O43    Zn6       1.93324      .   S
    C20    O40       1.26484      .   S
    C21    O41       1.26500      .   S
    O24    C8        1.26514      .   S
    O25    C9        1.26503      .   S
    O44    Zn1       1.94535      .   S
    O45    Zn2       1.94538      .   S
    Zn1    O26       1.93301      .   S
    Zn2    O27       1.93313      .   S
    Zn5    O28       1.94536  1_565   S
    Zn5    O52       1.91515      .   S
    Zn6    O29       1.94540  1_565   S
    Zn6    O53       1.91524      .   S
    O28    C10       1.28944      .   S
    O29    C11       1.28980      .   S
    O40    Zn3       2.04197      .   S
    O41    Zn4       2.04192      .   S
    C8     O26       1.29039      .   S
    C9     O27       1.29043      .   S
    O52    C14       1.29434      .   S
    O53    C15       1.29434      .   S
    C10    O30       1.27017  1_545   S
    C11    O31       1.26988  1_545   S
    O50    Zn3       2.20200      .   S
    O50    C12       1.26770      .   S
    O51    Zn4       2.20206      .   S
    O51    C13       1.26825      .   S
    Zn3    O30       2.09038      .   S
    Zn3    O54       2.01724      .   S
    Zn3    O48       2.02351      .   S
    Zn4    O31       2.09040      .   S
    Zn4    O55       2.01721      .   S
    Zn4    O49       2.02396      .   S
    C14    O54       1.26633      .   S
    C15    O55       1.26632      .   S
    C12    O48       1.29325      .   S
    C13    O49       1.29332      .   S
    C8     Og56      0.49532      .   S
    C9     Og57      0.49538      .   S
    C10    Og58      0.49406      .   S
    C11    Og59      0.49404      .   S
    C12    Og60      0.49676      .   S
    C13    Og61      0.49671      .   S
    C14    Og62      0.49665      .   S
    C15    Og63      0.49666      .   S
    C16    Og64      0.49670      .   S
    C17    Og65      0.49671      .   S
    C18    Og66      0.49664      .   S
    C19    Og67      0.49665      .   S
    C20    Og68      0.49538      .   S
    C21    Og69      0.49533      .   S
    C22    Og70      0.49404      .   S
    C23    Og71      0.49402      .   S
