# CIF file generated by openbabel 2.4.90, see http://openbabel.sf.net
data_I
_chemical_name_common ''
_cell_length_a 20.521
_cell_length_b 16.616
_cell_length_c 19.798
_cell_angle_alpha 89.965
_cell_angle_beta 101.651
_cell_angle_gamma 90.041
_space_group_name_H-M_alt 'P 1'
_space_group_name_Hall 'P 1'
loop_
    _symmetry_equiv_pos_as_xyz
    x,y,z
loop_
    _atom_site_label
    _atom_site_type_symbol
    _atom_site_fract_x
    _atom_site_fract_y
    _atom_site_fract_z
    _atom_site_occupancy
    C0      C    0.25862   0.34010   0.37986   1.000
    C1      C    0.75862   0.34011   0.37988   1.000
    C2      C    0.36370   0.41981   0.48070   1.000
    C3      C    0.86370   0.41981   0.48070   1.000
    C4      C    0.24135   0.84001   0.62002   1.000
    C5      C    0.74135   0.84002   0.62005   1.000
    C6      C    0.13635   0.91970   0.51912   1.000
    C7      C    0.63635   0.91971   0.51915   1.000
    C8      C    0.28245   0.05870   0.71459   1.000
    C9      C    0.78244   0.05870   0.71459   1.000
    C10     C    0.35894   0.29183   0.67161   1.000
    C11     C    0.85898   0.29181   0.67162   1.000
    C12     C    0.45284   0.19941   0.70839   1.000
    C13     C    0.95287   0.19937   0.70841   1.000
    C14     C    0.10183   0.26933   0.88379   1.000
    C15     C    0.60183   0.26933   0.88376   1.000
    C16     C    0.02067   0.25494   0.95984   1.000
    C17     C    0.52068   0.25494   0.95982   1.000
    C18     C    0.18978   0.18445   0.87293   1.000
    C19     C    0.68978   0.18442   0.87290   1.000
    C20     C    0.22664   0.08761   0.89118   1.000
    C21     C    0.72664   0.08759   0.89119   1.000
    C22     C    0.18072   0.19792   0.99794   1.000
    C23     C    0.68070   0.19792   0.99793   1.000
    C24     C    0.13628   0.11283   0.95813   1.000
    C25     C    0.63628   0.11281   0.95813   1.000
    C26     C    0.21523   0.09997   0.00000   1.000
    C27     C    0.71523   0.09998   0.00000   1.000
    C28     C    0.25442   0.16424   0.80002   1.000
    C29     C    0.75442   0.16423   0.80002   1.000
    C30     C    0.38896   0.07068   0.97105   1.000
    C31     C    0.88894   0.07068   0.97105   1.000
    C32     C    0.39777   0.96073   0.05689   1.000
    C33     C    0.89775   0.96073   0.05690   1.000
    C34     C    0.45963   0.12979   0.22194   1.000
    C35     C    0.95962   0.12980   0.22190   1.000
    C36     C    0.45914   0.38507   0.10977   1.000
    C37     C    0.95913   0.38507   0.10977   1.000
    C38     C    0.48806   0.45127   0.01502   1.000
    C39     C    0.98805   0.45127   0.01502   1.000
    C40     C    0.40626   0.46854   0.03030   1.000
    C41     C    0.90624   0.46854   0.03029   1.000
    C42     C    0.36478   0.49894   0.90540   1.000
    C43     C    0.86478   0.49893   0.90540   1.000
    C44     C    0.43435   0.56180   0.93909   1.000
    C45     C    0.93434   0.56180   0.93909   1.000
    C46     C    0.44472   0.47697   0.88778   1.000
    C47     C    0.94472   0.47697   0.88778   1.000
    C48     C    0.08182   0.28166   0.21124   1.000
    C49     C    0.58183   0.28166   0.21125   1.000
    C50     C    0.03707   0.35793   0.40401   1.000
    C51     C    0.53706   0.35791   0.40402   1.000
    C52     C    0.37788   0.28963   0.23650   1.000
    C53     C    0.87788   0.28966   0.23650   1.000
    C54     C    0.21754   0.55877   0.28546   1.000
    C55     C    0.71754   0.55878   0.28550   1.000
    C56     C    0.14109   0.79179   0.32828   1.000
    C57     C    0.64107   0.79179   0.32832   1.000
    C58     C    0.04718   0.69937   0.29159   1.000
    C59     C    0.54716   0.69936   0.29161   1.000
    C60     C    0.39823   0.76931   0.11621   1.000
    C61     C    0.89824   0.76935   0.11620   1.000
    C62     C    0.47935   0.75495   0.04015   1.000
    C63     C    0.97935   0.75498   0.04013   1.000
    C64     C    0.31019   0.68446   0.12705   1.000
    C65     C    0.81019   0.68446   0.12708   1.000
    C66     C    0.27323   0.58762   0.10889   1.000
    C67     C    0.77324   0.58762   0.10890   1.000
    C68     C    0.31929   0.69791   0.00000   1.000
    C69     C    0.81930   0.69791   0.00000   1.000
    C70     C    0.36363   0.61281   0.04194   1.000
    C71     C    0.86364   0.61281   0.04197   1.000
    C72     C    0.28468   0.59995   0.98536   1.000
    C73     C    0.78468   0.59995   0.98539   1.000
    C74     C    0.24554   0.66424   0.19995   1.000
    C75     C    0.74554   0.66425   0.19999   1.000
    C76     C    0.11101   0.57075   0.02900   1.000
    C77     C    0.61102   0.57073   0.02900   1.000
    C78     C    0.10222   0.46087   0.94323   1.000
    C79     C    0.60224   0.46085   0.94325   1.000
    C80     C    0.04042   0.62992   0.77807   1.000
    C81     C    0.54040   0.62990   0.77810   1.000
    C82     C    0.04083   0.88513   0.89009   1.000
    C83     C    0.54082   0.88510   0.89012   1.000
    C84     C    0.01190   0.95119   0.98480   1.000
    C85     C    0.51190   0.95117   0.98486   1.000
    C86     C    0.09369   0.96869   0.96954   1.000
    C87     C    0.59370   0.96866   0.96957   1.000
    C88     C    0.13514   0.99903   0.09444   1.000
    C89     C    0.63515   0.99900   0.09447   1.000
    C90     C    0.06557   0.06179   0.06071   1.000
    C91     C    0.56559   0.06176   0.06070   1.000
    C92     C    0.05520   0.97687   0.11205   1.000
    C93     C    0.55521   0.97684   0.11208   1.000
    C94     C    0.41814   0.78177   0.78875   1.000
    C95     C    0.91817   0.78180   0.78874   1.000
    C96     C    0.46292   0.85781   0.59583   1.000
    C97     C    0.96291   0.85778   0.59500   1.000
    C98     C    0.12207   0.78946   0.76325   1.000
    C99     C    0.62206   0.78947   0.76331   1.000
    C100    C    0.31131   0.29003   0.53260   1.000
    C101    C    0.81135   0.29002   0.53260   1.000
    C102    C    0.30218   0.22853   0.58442   1.000
    C103    C    0.80222   0.22852   0.58443   1.000
    C104    C    0.26495   0.16006   0.56524   1.000
    C105    C    0.76498   0.16005   0.56524   1.000
    C106    C    0.25650   0.09841   0.60916   1.000
    C107    C    0.75651   0.09840   0.60916   1.000
    C108    C    0.28735   0.10743   0.67905   1.000
    C109    C    0.78736   0.10743   0.67905   1.000
    C110    C    0.32359   0.17698   0.70268   1.000
    C111    C    0.82361   0.17697   0.70269   1.000
    C112    C    0.33120   0.23699   0.65483   1.000
    C113    C    0.83123   0.23697   0.65483   1.000
    C114    C    0.21833   0.02432   0.58570   1.000
    C115    C    0.71834   0.02433   0.58572   1.000
    C116    C    0.35007   0.18755   0.77763   1.000
    C117    C    0.85008   0.18753   0.77764   1.000
    C118    C    0.41791   0.20821   0.80500   1.000
    C119    C    0.91792   0.20820   0.80504   1.000
    C120    C    0.46645   0.21320   0.76313   1.000
    C121    C    0.96646   0.21318   0.76315   1.000
    C122    C    0.03100   0.23449   0.79169   1.000
    C123    C    0.53099   0.23451   0.79167   1.000
    C124    C    0.05081   0.25114   0.86282   1.000
    C125    C    0.55081   0.25114   0.86280   1.000
    C126    C    0.00522   0.24382   0.90472   1.000
    C127    C    0.50522   0.24383   0.90470   1.000
    C128    C    0.43785   0.22217   0.87804   1.000
    C129    C    0.93785   0.22216   0.87805   1.000
    C130    C    0.39143   0.21359   0.92227   1.000
    C131    C    0.89143   0.21359   0.92227   1.000
    C132    C    0.32624   0.19073   0.89370   1.000
    C133    C    0.82623   0.19072   0.89372   1.000
    C134    C    0.21957   0.14692   0.91370   1.000
    C135    C    0.71957   0.14691   0.91370   1.000
    C136    C    0.18614   0.13884   0.97487   1.000
    C137    C    0.68613   0.13884   0.97487   1.000
    C138    C    0.30619   0.17816   0.82196   1.000
    C139    C    0.80619   0.17815   0.82196   1.000
    C140    C    0.41174   0.22915   0.99748   1.000
    C141    C    0.91172   0.22915   0.99748   1.000
    C142    C    0.41779   0.16539   0.04645   1.000
    C143    C    0.91778   0.16539   0.04645   1.000
    C144    C    0.40393   0.08410   0.02583   1.000
    C145    C    0.90392   0.08409   0.02583   1.000
    C146    C    0.40874   0.02271   0.07329   1.000
    C147    C    0.90872   0.02271   0.07330   1.000
    C148    C    0.42869   0.04005   0.14439   1.000
    C149    C    0.92868   0.04006   0.14440   1.000
    C150    C    0.44376   0.11747   0.16708   1.000
    C151    C    0.94375   0.11748   0.16709   1.000
    C152    C    0.43857   0.18180   0.11898   1.000
    C153    C    0.93856   0.18180   0.11898   1.000
    C154    C    0.45396   0.26266   0.14050   1.000
    C155    C    0.95395   0.26266   0.14050   1.000
    C156    C    0.44756   0.32376   0.09203   1.000
    C157    C    0.94755   0.32376   0.09203   1.000
    C158    C    0.42563   0.30782   0.02088   1.000
    C159    C    0.92562   0.30782   0.02088   1.000
    C160    C    0.43455   0.44843   0.99159   1.000
    C161    C    0.93454   0.44842   0.99159   1.000
    C162    C    0.41844   0.49942   0.92703   1.000
    C163    C    0.91843   0.49941   0.92702   1.000
    C164    C    0.47693   0.28405   0.21461   1.000
    C165    C    0.97692   0.28406   0.21460   1.000
    C166    C    0.04484   0.29375   0.24245   1.000
    C167    C    0.54485   0.29375   0.24246   1.000
    C168    C    0.06644   0.31962   0.31067   1.000
    C169    C    0.56644   0.31961   0.31068   1.000
    C170    C    0.01997   0.33647   0.35151   1.000
    C171    C    0.51997   0.33644   0.35152   1.000
    C172    C    0.45218   0.32483   0.32476   1.000
    C173    C    0.95218   0.32487   0.32475   1.000
    C174    C    0.43091   0.29804   0.25665   1.000
    C175    C    0.93090   0.29806   0.25665   1.000
    C176    C    0.13875   0.32979   0.34007   1.000
    C177    C    0.63875   0.32978   0.34009   1.000
    C178    C    0.40166   0.34237   0.36724   1.000
    C179    C    0.90166   0.34242   0.36723   1.000
    C180    C    0.18877   0.79003   0.46728   1.000
    C181    C    0.68875   0.79002   0.46731   1.000
    C182    C    0.19787   0.72855   0.41549   1.000
    C183    C    0.69785   0.72855   0.41553   1.000
    C184    C    0.23512   0.66013   0.43472   1.000
    C185    C    0.73510   0.66013   0.43476   1.000
    C186    C    0.24356   0.59851   0.39085   1.000
    C187    C    0.74355   0.59852   0.39089   1.000
    C188    C    0.21266   0.60749   0.32090   1.000
    C189    C    0.71265   0.60750   0.32100   1.000
    C190    C    0.17641   0.67699   0.29729   1.000
    C191    C    0.67640   0.67700   0.29732   1.000
    C192    C    0.16883   0.73697   0.34509   1.000
    C193    C    0.66881   0.73698   0.34513   1.000
    C194    C    0.28174   0.52446   0.41428   1.000
    C195    C    0.78173   0.52447   0.41430   1.000
    C196    C    0.14992   0.68755   0.22234   1.000
    C197    C    0.64991   0.68755   0.22237   1.000
    C198    C    0.08210   0.70822   0.19494   1.000
    C199    C    0.58209   0.70820   0.19497   1.000
    C200    C    0.03358   0.71319   0.23680   1.000
    C201    C    0.53357   0.71317   0.23686   1.000
    C202    C    0.46904   0.73447   0.20832   1.000
    C203    C    0.96905   0.73450   0.20831   1.000
    C204    C    0.44924   0.75112   0.13718   1.000
    C205    C    0.94925   0.75116   0.13717   1.000
    C206    C    0.49482   0.74383   0.09520   1.000
    C207    C    0.99482   0.74386   0.09526   1.000
    C208    C    0.06217   0.72219   0.12192   1.000
    C209    C    0.56216   0.72217   0.12194   1.000
    C210    C    0.10858   0.71363   0.07769   1.000
    C211    C    0.60857   0.71361   0.07770   1.000
    C212    C    0.17374   0.69074   0.10624   1.000
    C213    C    0.67374   0.69074   0.10627   1.000
    C214    C    0.28037   0.64693   0.08632   1.000
    C215    C    0.78037   0.64693   0.08635   1.000
    C216    C    0.31380   0.63883   0.02516   1.000
    C217    C    0.81381   0.63883   0.02519   1.000
    C218    C    0.19378   0.67816   0.17801   1.000
    C219    C    0.69378   0.67817   0.17800   1.000
    C220    C    0.08827   0.72921   0.00247   1.000
    C221    C    0.58827   0.72919   0.00250   1.000
    C222    C    0.08222   0.66548   0.95354   1.000
    C223    C    0.58221   0.66546   0.95357   1.000
    C224    C    0.09606   0.58419   0.97421   1.000
    C225    C    0.59607   0.58417   0.97424   1.000
    C226    C    0.09127   0.52282   0.92679   1.000
    C227    C    0.59128   0.52280   0.92681   1.000
    C228    C    0.07134   0.54019   0.85567   1.000
    C229    C    0.57134   0.54017   0.85500   1.000
    C230    C    0.05627   0.61760   0.83294   1.000
    C231    C    0.55625   0.61757   0.83296   1.000
    C232    C    0.06144   0.68190   0.88100   1.000
    C233    C    0.56143   0.68188   0.88103   1.000
    C234    C    0.04604   0.76275   0.85943   1.000
    C235    C    0.54601   0.76272   0.85946   1.000
    C236    C    0.05242   0.82382   0.90786   1.000
    C237    C    0.55241   0.82380   0.90789   1.000
    C238    C    0.07437   0.80789   0.97902   1.000
    C239    C    0.57436   0.80787   0.97905   1.000
    C240    C    0.06541   0.94845   0.00826   1.000
    C241    C    0.56541   0.94842   0.00829   1.000
    C242    C    0.08149   0.99942   0.07280   1.000
    C243    C    0.58150   0.99939   0.07284   1.000
    C244    C    0.02305   0.78410   0.78530   1.000
    C245    C    0.52303   0.78408   0.78530   1.000
    C246    C    0.45511   0.79382   0.75751   1.000
    C247    C    0.95513   0.79384   0.75749   1.000
    C248    C    0.43353   0.81962   0.68924   1.000
    C249    C    0.93354   0.81963   0.68922   1.000
    C250    C    0.48000   0.83636   0.64835   1.000
    C251    C    0.97999   0.83635   0.64832   1.000
    C252    C    0.04777   0.82462   0.67503   1.000
    C253    C    0.54777   0.82464   0.67508   1.000
    C254    C    0.06906   0.79793   0.74318   1.000
    C255    C    0.56904   0.79794   0.74323   1.000
    C256    C    0.36122   0.82981   0.65980   1.000
    C257    C    0.86123   0.82981   0.65983   1.000
    C258    C    0.09826   0.84191   0.63242   1.000
    C259    C    0.59827   0.84196   0.63249   1.000
    C260    C    0.09042   0.24063   0.73989   1.000
    C261    C    0.59040   0.24065   0.73986   1.000
    C262    C    0.43484   0.96091   0.20325   1.000
    C263    C    0.93483   0.96091   0.20326   1.000
    C264    C    0.40964   0.74058   0.26013   1.000
    C265    C    0.90966   0.74061   0.26013   1.000
    C266    C    0.06521   0.46109   0.79687   1.000
    C267    C    0.56521   0.46107   0.79680   1.000
    C268    C    0.28349   0.27788   0.47037   1.000
    C269    C    0.78351   0.27789   0.47038   1.000
    C270    C    0.34808   0.35132   0.55479   1.000
    C271    C    0.84813   0.35130   0.55480   1.000
    C272    C    0.17889   0.02488   0.52608   1.000
    C273    C    0.67889   0.02489   0.52608   1.000
    C274    C    0.22495   0.96375   0.62567   1.000
    C275    C    0.72495   0.96376   0.62567   1.000
    C276    C    0.18151   0.30555   0.30460   1.000
    C277    C    0.68152   0.30555   0.30469   1.000
    C278    C    0.15805   0.36147   0.39899   1.000
    C279    C    0.65805   0.36147   0.39901   1.000
    C280    C    0.42247   0.38185   0.42384   1.000
    C281    C    0.92248   0.38186   0.42385   1.000
    C282    C    0.34270   0.31818   0.34507   1.000
    C283    C    0.84268   0.31830   0.34503   1.000
    C284    C    0.28363   0.18380   0.93825   1.000
    C285    C    0.78362   0.18379   0.93825   1.000
    C286    C    0.41660   0.36660   0.97171   1.000
    C287    C    0.91660   0.36659   0.97170   1.000
    C288    C    0.21662   0.77789   0.52949   1.000
    C289    C    0.71659   0.77788   0.52953   1.000
    C290    C    0.15201   0.85129   0.44506   1.000
    C291    C    0.65199   0.85129   0.44510   1.000
    C292    C    0.32130   0.52499   0.47386   1.000
    C293    C    0.82129   0.52499   0.47390   1.000
    C294    C    0.27503   0.46395   0.37436   1.000
    C295    C    0.77502   0.46396   0.37439   1.000
    C296    C    0.31843   0.80555   0.69520   1.000
    C297    C    0.81844   0.80556   0.69525   1.000
    C298    C    0.34196   0.86150   0.60089   1.000
    C299    C    0.84196   0.86150   0.60089   1.000
    C300    C    0.07755   0.88182   0.57601   1.000
    C301    C    0.57756   0.88182   0.57606   1.000
    C302    C    0.15707   0.81710   0.65430   1.000
    C303    C    0.65709   0.81719   0.65440   1.000
    C304    C    0.21635   0.68380   0.06172   1.000
    C305    C    0.71635   0.68380   0.06175   1.000
    C306    C    0.08340   0.86664   0.02817   1.000
    C307    C    0.58340   0.86661   0.02800   1.000
    O308    O    0.31655   0.66837   0.01258   1.000
    O309    O    0.20068   0.11941   0.98743   1.000
    O310    O    0.70068   0.11941   0.98743   1.000
    O311    O    0.81655   0.66837   0.01259   1.000
    O312    O    0.09842   0.72142   0.04008   1.000
    O313    O    0.08525   0.69735   0.97800   1.000
    O314    O    0.08132   0.76855   0.99074   1.000
    O315    O    0.59842   0.72140   0.04010   1.000
    O316    O    0.58524   0.69732   0.97803   1.000
    O317    O    0.58132   0.76853   0.99077   1.000
    O318    O    0.07440   0.90754   0.01821   1.000
    O319    O    0.07345   0.97393   0.04053   1.000
    O320    O    0.07955   0.95857   0.98890   1.000
    O321    O    0.03865   0.94982   0.99653   1.000
    O322    O    0.57441   0.90752   0.01814   1.000
    O323    O    0.57346   0.97391   0.04056   1.000
    O324    O    0.57955   0.95854   0.98893   1.000
    O325    O    0.53866   0.94980   0.99657   1.000
    O326    O    0.46131   0.44985   0.00330   1.000
    O327    O    0.96130   0.44985   0.00330   1.000
    O328    O    0.43660   0.31579   0.05645   1.000
    O329    O    0.42112   0.33721   0.99629   1.000
    O330    O    0.41868   0.26849   0.00918   1.000
    O331    O    0.93659   0.31579   0.05645   1.000
    O332    O    0.92111   0.33721   0.99629   1.000
    O333    O    0.91867   0.26848   0.00918   1.000
    O334    O    0.33872   0.62582   0.03355   1.000
    O335    O    0.29709   0.64288   0.05574   1.000
    O336    O    0.29924   0.61939   0.00526   1.000
    O337    O    0.83872   0.62582   0.03358   1.000
    O338    O    0.79709   0.64288   0.05577   1.000
    O339    O    0.79925   0.61939   0.00529   1.000
    O340    O    0.91085   0.12474   0.03614   1.000
    O341    O    0.90632   0.05340   0.04956   1.000
    O342    O    0.89643   0.07738   0.99844   1.000
    O343    O    0.41086   0.12474   0.03614   1.000
    O344    O    0.40634   0.05340   0.04956   1.000
    O345    O    0.39645   0.07739   0.99844   1.000
    O346    O    0.57888   0.83724   0.00352   1.000
    O347    O    0.07889   0.83726   0.00359   1.000
    O348    O    0.60354   0.57745   0.00162   1.000
    O349    O    0.10353   0.57747   0.00160   1.000
    O350    O    0.92039   0.45848   0.01094   1.000
    O351    O    0.42041   0.45849   0.01094   1.000
    O352    O    0.98709   0.74942   0.06769   1.000
    O353    O    0.48709   0.74939   0.06767   1.000
    O354    O    0.42818   0.17359   0.08271   1.000
    O355    O    0.41476   0.19727   0.02196   1.000
    O356    O    0.92817   0.17360   0.08271   1.000
    O357    O    0.91475   0.19727   0.02196   1.000
    O358    O    0.40325   0.99172   0.06509   1.000
    O359    O    0.90324   0.99172   0.06510   1.000
    O360    O    0.57354   0.03058   0.06677   1.000
    O361    O    0.07353   0.03060   0.06675   1.000
    O362    O    0.24836   0.66536   0.07402   1.000
    O363    O    0.19505   0.68727   0.08398   1.000
    O364    O    0.74836   0.66536   0.07405   1.000
    O365    O    0.69505   0.68727   0.08401   1.000
    O366    O    0.10831   0.99923   0.08362   1.000
    O367    O    0.06834   0.98815   0.09242   1.000
    O368    O    0.60833   0.99920   0.08365   1.000
    O369    O    0.56836   0.98812   0.09246   1.000
    O370    O    0.41871   0.03138   0.10884   1.000
    O371    O    0.91870   0.03138   0.10885   1.000
    O372    O    0.14116   0.70219   0.09196   1.000
    O373    O    0.08537   0.71791   0.09980   1.000
    O374    O    0.64116   0.70218   0.09198   1.000
    O375    O    0.58537   0.71789   0.09982   1.000
    O376    O    0.27680   0.61727   0.09760   1.000
    O377    O    0.29528   0.66569   0.10668   1.000
    O378    O    0.77681   0.61727   0.09762   1.000
    O379    O    0.79528   0.66570   0.10671   1.000
    O380    O    0.95334   0.35441   0.10090   1.000
    O381    O    0.95075   0.29321   0.11626   1.000
    O382    O    0.45335   0.35441   0.10090   1.000
    O383    O    0.45076   0.29321   0.11626   1.000
    O384    O    0.52849   0.73300   0.10857   1.000
    O385    O    0.47203   0.74747   0.11619   1.000
    O386    O    0.02849   0.73303   0.10859   1.000
    O387    O    0.97203   0.74751   0.11621   1.000
    O388    O    0.18376   0.68445   0.14212   1.000
    O389    O    0.68376   0.68445   0.14213   1.000
    O390    O    0.92374   0.76025   0.12668   1.000
    O391    O    0.42373   0.76021   0.12669   1.000
    O392    O    0.44627   0.22223   0.12974   1.000
    O393    O    0.44117   0.14964   0.14303   1.000
    O394    O    0.94625   0.22223   0.12974   1.000
    O395    O    0.94115   0.14964   0.14303   1.000
    O396    O    0.07213   0.71521   0.15843   1.000
    O397    O    0.57213   0.71519   0.15845   1.000
    O398    O    0.95915   0.74283   0.17274   1.000
    O399    O    0.45914   0.74280   0.17275   1.000
    O400    O    0.96543   0.27336   0.17755   1.000
    O401    O    0.46545   0.27335   0.17755   1.000
    O402    O    0.43623   0.07876   0.15573   1.000
    O403    O    0.43177   0.00048   0.17382   1.000
    O404    O    0.93621   0.07877   0.15574   1.000
    O405    O    0.93176   0.00049   0.17383   1.000
    O406    O    0.45169   0.12363   0.19451   1.000
    O407    O    0.95168   0.12364   0.19449   1.000
    O408    O    0.71966   0.67121   0.18899   1.000
    O409    O    0.67185   0.68286   0.20018   1.000
    O410    O    0.21966   0.67120   0.18898   1.000
    O411    O    0.17185   0.68286   0.20017   1.000
    O412    O    0.11601   0.69788   0.20864   1.000
    O413    O    0.05784   0.71070   0.21587   1.000
    O414    O    0.61600   0.69788   0.20867   1.000
    O415    O    0.55783   0.71069   0.21591   1.000
    O416    O    0.00132   0.72384   0.22255   1.000
    O417    O    0.93936   0.73756   0.23422   1.000
    O418    O    0.50131   0.72382   0.22259   1.000
    O419    O    0.43934   0.73753   0.23422   1.000
    O420    O    0.06333   0.28771   0.22684   1.000
    O421    O    0.56334   0.28770   0.22685   1.000
    O422    O    0.01088   0.28891   0.22852   1.000
    O423    O    0.95391   0.29106   0.23562   1.000
    O424    O    0.51089   0.28890   0.22853   1.000
    O425    O    0.45392   0.29105   0.23563   1.000
    O426    O    0.16317   0.68227   0.25981   1.000
    O427    O    0.66316   0.68227   0.25984   1.000
    O428    O    0.40440   0.29384   0.24657   1.000
    O429    O    0.90439   0.29386   0.24657   1.000
    O430    O    0.04038   0.70628   0.26419   1.000
    O431    O    0.54037   0.70626   0.26423   1.000
    O432    O    0.05564   0.30669   0.27656   1.000
    O433    O    0.55565   0.30668   0.27657   1.000
    O434    O    0.94154   0.31147   0.29070   1.000
    O435    O    0.44154   0.31144   0.29070   1.000
    O436    O    0.21510   0.58313   0.30318   1.000
    O437    O    0.71510   0.58314   0.30325   1.000
    O438    O    0.19454   0.64224   0.30909   1.000
    O439    O    0.17262   0.70698   0.32119   1.000
    O440    O    0.69453   0.64225   0.30916   1.000
    O441    O    0.67261   0.70699   0.32122   1.000
    O442    O    0.16013   0.31767   0.32233   1.000
    O443    O    0.22007   0.32282   0.34223   1.000
    O444    O    0.66013   0.31766   0.32239   1.000
    O445    O    0.72007   0.32283   0.34228   1.000
    O446    O    0.10259   0.32471   0.32537   1.000
    O447    O    0.04320   0.32805   0.33109   1.000
    O448    O    0.60259   0.32470   0.32538   1.000
    O449    O    0.54320   0.32803   0.33110   1.000
    O450    O    0.22811   0.60300   0.35587   1.000
    O451    O    0.72810   0.60301   0.35594   1.000
    O452    O    0.98607   0.33067   0.33813   1.000
    O453    O    0.92692   0.33365   0.34599   1.000
    O454    O    0.48607   0.33064   0.33814   1.000
    O455    O    0.42692   0.33360   0.34600   1.000
    O456    O    0.15496   0.76438   0.33668   1.000
    O457    O    0.65494   0.76438   0.33672   1.000
    O458    O    0.14840   0.34563   0.36953   1.000
    O459    O    0.64840   0.34563   0.36955   1.000
    O460    O    0.87217   0.33036   0.35613   1.000
    O461    O    0.80065   0.32921   0.36245   1.000
    O462    O    0.37218   0.33027   0.35615   1.000
    O463    O    0.30066   0.32914   0.36246   1.000
    O464    O    0.18335   0.73276   0.38029   1.000
    O465    O    0.68333   0.73276   0.38033   1.000
    O466    O    0.02852   0.34720   0.37776   1.000
    O467    O    0.52851   0.34718   0.37777   1.000
    O468    O    0.91207   0.36214   0.39554   1.000
    O469    O    0.41206   0.36211   0.39554   1.000
    O470    O    0.26683   0.40202   0.37711   1.000
    O471    O    0.27839   0.49421   0.39432   1.000
    O472    O    0.76682   0.40204   0.37713   1.000
    O473    O    0.77838   0.49422   0.39434   1.000
    O474    O    0.20833   0.35079   0.38942   1.000
    O475    O    0.27106   0.30899   0.42511   1.000
    O476    O    0.70833   0.35079   0.38944   1.000
    O477    O    0.77106   0.30900   0.42513   1.000
    O478    O    0.26265   0.56149   0.40256   1.000
    O479    O    0.23934   0.62932   0.41278   1.000
    O480    O    0.76264   0.56149   0.40259   1.000
    O481    O    0.73932   0.62932   0.41282   1.000
    O482    O    0.30152   0.52473   0.44407   1.000
    O483    O    0.80151   0.52473   0.44410   1.000
    O484    O    0.21649   0.69434   0.42510   1.000
    O485    O    0.19332   0.75929   0.44138   1.000
    O486    O    0.71647   0.69434   0.42514   1.000
    O487    O    0.69330   0.75928   0.44142   1.000
    O488    O    0.39308   0.40083   0.45227   1.000
    O489    O    0.89309   0.40083   0.45227   1.000
    O490    O    0.17039   0.82066   0.45617   1.000
    O491    O    0.14418   0.88550   0.48209   1.000
    O492    O    0.67037   0.82066   0.45620   1.000
    O493    O    0.64417   0.88550   0.48212   1.000
    O494    O    0.20270   0.78396   0.49838   1.000
    O495    O    0.70267   0.78395   0.49842   1.000
    O496    O    0.29740   0.28396   0.50148   1.000
    O497    O    0.79743   0.28396   0.50149   1.000
    O498    O    0.34250   0.47240   0.47728   1.000
    O499    O    0.84249   0.47240   0.47730   1.000
    O500    O    0.35589   0.38556   0.51774   1.000
    O501    O    0.85592   0.38556   0.51775   1.000
    O502    O    0.15762   0.97229   0.52260   1.000
    O503    O    0.10695   0.90076   0.54756   1.000
    O504    O    0.65762   0.97230   0.52261   1.000
    O505    O    0.60696   0.90077   0.54760   1.000
    O506    O    0.19861   0.02460   0.55589   1.000
    O507    O    0.69861   0.02461   0.55590   1.000
    O508    O    0.22898   0.80895   0.57475   1.000
    O509    O    0.72897   0.80895   0.57479   1.000
    O510    O    0.32969   0.32068   0.54369   1.000
    O511    O    0.30674   0.25928   0.55851   1.000
    O512    O    0.82974   0.32066   0.54370   1.000
    O513    O    0.80678   0.25927   0.55851   1.000
    O514    O    0.78360   0.19428   0.57483   1.000
    O515    O    0.76075   0.12923   0.58720   1.000
    O516    O    0.28356   0.19429   0.57483   1.000
    O517    O    0.26072   0.12923   0.58720   1.000
    O518    O    0.08791   0.86187   0.60421   1.000
    O519    O    0.58792   0.86189   0.60427   1.000
    O520    O    0.31669   0.23276   0.61962   1.000
    O521    O    0.81673   0.23274   0.61963   1.000
    O522    O    0.23741   0.06136   0.59743   1.000
    O523    O    0.22164   0.99404   0.60568   1.000
    O524    O    0.73743   0.06137   0.59744   1.000
    O525    O    0.72164   0.99404   0.60569   1.000
    O526    O    0.97145   0.84707   0.62166   1.000
    O527    O    0.47146   0.84709   0.62209   1.000
    O528    O    0.29166   0.85076   0.61045   1.000
    O529    O    0.35159   0.84566   0.63034   1.000
    O530    O    0.79165   0.85076   0.61047   1.000
    O531    O    0.85159   0.84565   0.63036   1.000
    O532    O    0.27192   0.10292   0.64410   1.000
    O533    O    0.77194   0.10292   0.64410   1.000
    O534    O    0.23315   0.90188   0.62284   1.000
    O535    O    0.19921   0.82856   0.63716   1.000
    O536    O    0.27989   0.82278   0.65761   1.000
    O537    O    0.73315   0.90189   0.62286   1.000
    O538    O    0.69922   0.82861   0.63722   1.000
    O539    O    0.77990   0.82279   0.65765   1.000
    O540    O    0.12767   0.82951   0.64336   1.000
    O541    O    0.07302   0.83327   0.65372   1.000
    O542    O    0.62768   0.82958   0.64344   1.000
    O543    O    0.57302   0.83330   0.65378   1.000
    O544    O    0.01388   0.83048   0.66167   1.000
    O545    O    0.95676   0.82799   0.66877   1.000
    O546    O    0.51388   0.83050   0.66171   1.000
    O547    O    0.45676   0.82799   0.66879   1.000
    O548    O    0.34507   0.26441   0.66322   1.000
    O549    O    0.32739   0.20698   0.67875   1.000
    O550    O    0.84511   0.26439   0.66322   1.000
    O551    O    0.82742   0.20697   0.67876   1.000
    O552    O    0.39737   0.82472   0.67452   1.000
    O553    O    0.33983   0.81768   0.67750   1.000
    O554    O    0.89738   0.82472   0.67452   1.000
    O555    O    0.83984   0.81768   0.67754   1.000
    O556    O    0.05841   0.81128   0.70910   1.000
    O557    O    0.55841   0.81129   0.70915   1.000
    O558    O    0.80549   0.14220   0.69087   1.000
    O559    O    0.78490   0.08306   0.69682   1.000
    O560    O    0.30547   0.14221   0.69086   1.000
    O561    O    0.28490   0.08306   0.69682   1.000
    O562    O    0.94433   0.80673   0.72335   1.000
    O563    O    0.44432   0.80672   0.72337   1.000
    O564    O    0.33683   0.18227   0.74015   1.000
    O565    O    0.83685   0.18225   0.74016   1.000
    O566    O    0.45965   0.20630   0.73576   1.000
    O567    O    0.95966   0.20628   0.73578   1.000
    O568    O    0.56070   0.23758   0.76576   1.000
    O569    O    0.06071   0.23756   0.76579   1.000
    O570    O    0.09556   0.79370   0.75321   1.000
    O571    O    0.04605   0.79101   0.76424   1.000
    O572    O    0.59555   0.79371   0.75327   1.000
    O573    O    0.54604   0.79101   0.76426   1.000
    O574    O    0.98909   0.78897   0.77139   1.000
    O575    O    0.93665   0.78782   0.77311   1.000
    O576    O    0.48907   0.78895   0.77140   1.000
    O577    O    0.43663   0.78780   0.77313   1.000
    O578    O    0.49872   0.22386   0.77740   1.000
    O579    O    0.44218   0.21071   0.78406   1.000
    O580    O    0.99873   0.22384   0.77742   1.000
    O581    O    0.94219   0.21069   0.78409   1.000
    O582    O    0.38399   0.19788   0.79131   1.000
    O583    O    0.32813   0.18285   0.79979   1.000
    O584    O    0.88400   0.19787   0.79134   1.000
    O585    O    0.82814   0.18284   0.79980   1.000
    O586    O    0.04834   0.62376   0.80550   1.000
    O587    O    0.54833   0.62374   0.80553   1.000
    O588    O    0.03454   0.77342   0.82236   1.000
    O589    O    0.53452   0.77340   0.82238   1.000
    O590    O    0.54090   0.24283   0.82723   1.000
    O591    O    0.04091   0.24282   0.82725   1.000
    O592    O    0.56827   0.50062   0.82590   1.000
    O593    O    0.06828   0.50064   0.82627   1.000
    O594    O    0.78031   0.17119   0.81099   1.000
    O595    O    0.28030   0.17120   0.81099   1.000
    O596    O    0.42788   0.21519   0.84152   1.000
    O597    O    0.92789   0.21518   0.84154   1.000
    O598    O    0.81621   0.18443   0.85784   1.000
    O599    O    0.31621   0.18444   0.85783   1.000
    O600    O    0.06381   0.57889   0.84430   1.000
    O601    O    0.05886   0.64975   0.85697   1.000
    O602    O    0.56380   0.57887   0.84398   1.000
    O603    O    0.55884   0.64973   0.85699   1.000
    O604    O    0.58131   0.53149   0.89090   1.000
    O605    O    0.08130   0.53150   0.89123   1.000
    O606    O    0.05374   0.72232   0.87021   1.000
    O607    O    0.04923   0.79329   0.88364   1.000
    O608    O    0.55372   0.72230   0.87024   1.000
    O609    O    0.54921   0.79326   0.88367   1.000
    O610    O    0.57632   0.26024   0.87328   1.000
    O611    O    0.52801   0.24749   0.88375   1.000
    O612    O    0.07632   0.26024   0.87330   1.000
    O613    O    0.02801   0.24748   0.88377   1.000
    O614    O    0.70467   0.16567   0.89330   1.000
    O615    O    0.20468   0.16569   0.89331   1.000
    O616    O    0.47153   0.23300   0.89137   1.000
    O617    O    0.41464   0.21788   0.90015   1.000
    O618    O    0.97153   0.23299   0.89138   1.000
    O619    O    0.91464   0.21787   0.90016   1.000
    O620    O    0.07183   0.67369   0.91727   1.000
    O621    O    0.57182   0.67367   0.91730   1.000
    O622    O    0.43158   0.48819   0.90740   1.000
    O623    O    0.93158   0.48819   0.90740   1.000
    O624    O    0.04663   0.85448   0.89897   1.000
    O625    O    0.54661   0.85445   0.89900   1.000
    O626    O    0.22310   0.11727   0.90244   1.000
    O627    O    0.72310   0.11725   0.90244   1.000
    O628    O    0.35884   0.20216   0.90798   1.000
    O629    O    0.30493   0.18726   0.91597   1.000
    O630    O    0.85883   0.20215   0.90799   1.000
    O631    O    0.80493   0.18726   0.91598   1.000
    O632    O    0.51295   0.24938   0.93226   1.000
    O633    O    0.01294   0.24938   0.93228   1.000
    O634    O    0.89161   0.49917   0.91621   1.000
    O635    O    0.39161   0.49918   0.91621   1.000
    O636    O    0.06340   0.81586   0.94344   1.000
    O637    O    0.56338   0.81583   0.94347   1.000
    O638    O    0.25160   0.16536   0.92597   1.000
    O639    O    0.20285   0.14288   0.94428   1.000
    O640    O    0.75159   0.16535   0.92597   1.000
    O641    O    0.70285   0.14287   0.94428   1.000
    O642    O    0.90157   0.22137   0.95987   1.000
    O643    O    0.40158   0.22137   0.95987   1.000
    O644    O    0.09674   0.49185   0.93501   1.000
    O645    O    0.09366   0.55351   0.95050   1.000
    O646    O    0.59676   0.49183   0.93503   1.000
    O647    O    0.59367   0.55349   0.95052   1.000
    O648    O    0.92639   0.53061   0.93305   1.000
    O649    O    0.92649   0.47392   0.95930   1.000
    O650    O    0.42639   0.53061   0.93306   1.000
    O651    O    0.42650   0.47392   0.95931   1.000
    O652    O    0.08914   0.62484   0.96387   1.000
    O653    O    0.58914   0.62481   0.96390   1.000
    O654    O    0.66121   0.12583   0.96650   1.000
    O655    O    0.16121   0.12583   0.96650   1.000
    O656    O    0.92557   0.40751   0.98164   1.000
    O657    O    0.42558   0.40751   0.98165   1.000
    O658    O    0.18343   0.16838   0.98640   1.000
    O659    O    0.68342   0.16838   0.98640   1.000
loop_
    _geom_bond_atom_site_label_1
    _geom_bond_atom_site_label_2
    _geom_bond_distance
    _geom_bond_site_symmetry_2
    _ccdc_geom_bond_type
    C68    O308      0.55822      .   S
    C216   O308      0.55822      .   S
    C26    O309      0.47468  1_554   S
    C136   O309      0.47468      .   S
    C27    O310      0.47462  1_554   S
    C137   O310      0.47462      .   S
    C69    O311      0.55835      .   S
    C217   O311      0.55835      .   S
    C220   O312      0.74287      .   S
    C210   O312      0.74287      .   S
    C220   O313      0.71201  1_554   S
    C222   O313      0.71201      .   S
    C220   O314      0.69862  1_554   S
    C238   O314      0.69862      .   S
    C221   O315      0.74267      .   S
    C211   O315      0.74267      .   S
    C221   O316      0.71200  1_554   S
    C223   O316      0.71200      .   S
    C221   O317      0.69862  1_554   S
    C239   O317      0.69862      .   S
    C240   O318      0.72124      .   S
    C306   O318      0.72124      .   S
    C240   O319      0.75658      .   S
    C242   O319      0.75658      .   S
    C240   O320      0.55155  1_554   S
    C86    O320      0.55155      .   S
    C240   O321      0.55171  1_554   S
    C84    O321      0.55171      .   S
    C241   O322      0.72082      .   S
    C307   O322      0.72082      .   S
    C241   O323      0.75664      .   S
    C243   O323      0.75664      .   S
    C241   O324      0.55153  1_554   S
    C87    O324      0.55153      .   S
    C241   O325      0.55166  1_554   S
    C85    O325      0.55166      .   S
    C38    O326      0.55165      .   S
    C160   O326      0.55165  1_556   S
    C39    O327      0.55164      .   S
    C161   O327      0.55164  1_556   S
    C158   O328      0.70730      .   S
    C156   O328      0.70730      .   S
    C158   O329      0.68225  1_554   S
    C286   O329      0.68225      .   S
    C158   O330      0.69851      .   S
    C140   O330      0.69851  1_556   S
    C159   O331      0.70731      .   S
    C157   O331      0.70731      .   S
    C159   O332      0.68230  1_554   S
    C287   O332      0.68230      .   S
    C159   O333      0.69851      .   S
    C141   O333      0.69851  1_556   S
    C216   O334      0.54909      .   S
    C70    O334      0.54909      .   S
    C216   O335      0.75679      .   S
    C214   O335      0.75679      .   S
    C216   O336      0.54892      .   S
    C72    O336      0.54892  1_556   S
    C217   O337      0.54909      .   S
    C71    O337      0.54909      .   S
    C217   O338      0.75679      .   S
    C215   O338      0.75679      .   S
    C217   O339      0.54892      .   S
    C73    O339      0.54892  1_556   S
    C145   O340      0.71156      .   S
    C143   O340      0.71156      .   S
    C145   O341      0.68828      .   S
    C147   O341      0.68828      .   S
    C145   O342      0.54451  1_554   S
    C31    O342      0.54451      .   S
    C144   O343      0.71156      .   S
    C142   O343      0.71156      .   S
    C144   O344      0.68824      .   S
    C146   O344      0.68824      .   S
    C144   O345      0.54450  1_554   S
    C30    O345      0.54450      .   S
    C307   O346      0.68092      .   S
    C239   O346      0.68092  1_556   S
    C306   O347      0.68230      .   S
    C238   O347      0.68230  1_556   S
    C77    O348      0.54425      .   S
    C225   O348      0.54425  1_556   S
    C76    O349      0.54452      .   S
    C224   O349      0.54452  1_556   S
    C41    O350      0.55143      .   S
    C161   O350      0.55143  1_556   S
    C40    O351      0.55148      .   S
    C160   O351      0.55148  1_556   S
    C63    O352      0.54455      .   S
    C207   O352      0.54455      .   S
    C62    O353      0.54379      .   S
    C206   O353      0.54379      .   S
    C142   O354      0.71958      .   S
    C152   O354      0.71958      .   S
    C142   O355      0.71206      .   S
    C140   O355      0.71206  1_556   S
    C143   O356      0.71958      .   S
    C153   O356      0.71958      .   S
    C143   O357      0.71206      .   S
    C141   O357      0.71206  1_556   S
    C32    O358      0.54479      .   S
    C146   O358      0.54479  1_545   S
    C33    O359      0.54480      .   S
    C147   O359      0.54480  1_545   S
    C91    O360      0.54928      .   S
    C243   O360      0.54928  1_565   S
    C90    O361      0.54918      .   S
    C242   O361      0.54918  1_565   S
    C304   O362      0.72127      .   S
    C214   O362      0.72127      .   S
    C304   O363      0.68302      .   S
    C212   O363      0.68302      .   S
    C305   O364      0.72127      .   S
    C215   O364      0.72127      .   S
    C305   O365      0.68304      .   S
    C213   O365      0.68304      .   S
    C242   O366      0.54892      .   S
    C88    O366      0.54892      .   S
    C242   O367      0.54864      .   S
    C92    O367      0.54864      .   S
    C243   O368      0.54892      .   S
    C89    O368      0.54892      .   S
    C243   O369      0.54854      .   S
    C93    O369      0.54854      .   S
    C146   O370      0.70706      .   S
    C148   O370      0.70706      .   S
    C147   O371      0.70706      .   S
    C149   O371      0.70706      .   S
    C210   O372      0.69782      .   S
    C212   O372      0.69782      .   S
    C210   O373      0.71259      .   S
    C208   O373      0.71259      .   S
    C211   O374      0.69785      .   S
    C213   O374      0.69785      .   S
    C211   O375      0.71270      .   S
    C209   O375      0.71270      .   S
    C214   O376      0.55179      .   S
    C66    O376      0.55179      .   S
    C214   O377      0.55100      .   S
    C64    O377      0.55100      .   S
    C215   O378      0.55169      .   S
    C67    O378      0.55169      .   S
    C215   O379      0.55101      .   S
    C65    O379      0.55101      .   S
    C157   O380      0.54407      .   S
    C37    O380      0.54407      .   S
    C157   O381      0.69223      .   S
    C155   O381      0.69223      .   S
    C156   O382      0.54407      .   S
    C36    O382      0.54407      .   S
    C156   O383      0.69224      .   S
    C154   O383      0.69224      .   S
    C206   O384      0.71144      .   S
    C209   O384      0.71144      .   S
    C206   O385      0.68822      .   S
    C204   O385      0.68822      .   S
    C207   O386      0.71133  1_655   S
    C208   O386      0.71133      .   S
    C207   O387      0.68767      .   S
    C205   O387      0.68767      .   S
    C212   O388      0.70631      .   S
    C218   O388      0.70631      .   S
    C213   O389      0.70592      .   S
    C219   O389      0.70592      .   S
    C61    O390      0.54407      .   S
    C205   O390      0.54407      .   S
    C60    O391      0.54407      .   S
    C204   O391      0.54407      .   S
    C152   O392      0.71276      .   S
    C154   O392      0.71276      .   S
    C152   O393      0.71039      .   S
    C150   O393      0.71039      .   S
    C153   O394      0.71277      .   S
    C155   O394      0.71277      .   S
    C153   O395      0.71043      .   S
    C151   O395      0.71043      .   S
    C208   O396      0.71973      .   S
    C198   O396      0.71973      .   S
    C209   O397      0.71981      .   S
    C199   O397      0.71981      .   S
    C205   O398      0.70604      .   S
    C203   O398      0.70604      .   S
    C204   O399      0.70602      .   S
    C202   O399      0.70602      .   S
    C155   O400      0.74529      .   S
    C165   O400      0.74529      .   S
    C154   O401      0.74537      .   S
    C164   O401      0.74537      .   S
    C148   O402      0.68855      .   S
    C150   O402      0.68855      .   S
    C148   O403      0.87210      .   S
    C262   O403      0.87210  1_565   S
    C149   O404      0.68856      .   S
    C151   O404      0.68856      .   S
    C149   O405      0.87208      .   S
    C263   O405      0.87208  1_565   S
    C150   O406      0.54426      .   S
    C34    O406      0.54426      .   S
    C151   O407      0.54380      .   S
    C35    O407      0.54380      .   S
    C219   O408      0.54418      .   S
    C75    O408      0.54418      .   S
    C219   O409      0.69394      .   S
    C197   O409      0.69394      .   S
    C218   O410      0.54409      .   S
    C74    O410      0.54409      .   S
    C218   O411      0.69361      .   S
    C196   O411      0.69361      .   S
    C198   O412      0.71492      .   S
    C196   O412      0.71492      .   S
    C198   O413      0.71038      .   S
    C200   O413      0.71038      .   S
    C199   O414      0.71491      .   S
    C197   O414      0.71491      .   S
    C199   O415      0.71063      .   S
    C201   O415      0.71063      .   S
    C203   O416      0.68843  1_655   S
    C200   O416      0.68843      .   S
    C203   O417      0.87375      .   S
    C265   O417      0.87375      .   S
    C202   O418      0.68851      .   S
    C201   O418      0.68851      .   S
    C202   O419      0.87373      .   S
    C264   O419      0.87373      .   S
    C48    O420      0.54487      .   S
    C166   O420      0.54487      .   S
    C49    O421      0.54488      .   S
    C167   O421      0.54488      .   S
    C165   O422      0.70041  1_655   S
    C166   O422      0.70041      .   S
    C165   O423      0.69947      .   S
    C175   O423      0.69947      .   S
    C164   O424      0.70040      .   S
    C167   O424      0.70040      .   S
    C164   O425      0.69941      .   S
    C174   O425      0.69941      .   S
    C196   O426      0.74199      .   S
    C190   O426      0.74199      .   S
    C197   O427      0.74198      .   S
    C191   O427      0.74198      .   S
    C52    O428      0.54479      .   S
    C174   O428      0.54479      .   S
    C53    O429      0.54479      .   S
    C175   O429      0.54479      .   S
    C200   O430      0.54424      .   S
    C58    O430      0.54424      .   S
    C201   O431      0.54385      .   S
    C59    O431      0.54385      .   S
    C166   O432      0.70071      .   S
    C168   O432      0.70071      .   S
    C167   O433      0.70068      .   S
    C169   O433      0.70068      .   S
    C175   O434      0.70168      .   S
    C173   O434      0.70168      .   S
    C174   O435      0.70173      .   S
    C172   O435      0.70173      .   S
    C54    O436      0.54472      .   S
    C188   O436      0.54472      .   S
    C55    O437      0.54510      .   S
    C189   O437      0.54510      .   S
    C190   O438      0.70095      .   S
    C188   O438      0.70095      .   S
    C190   O439      0.70252      .   S
    C192   O439      0.70252      .   S
    C191   O440      0.70111      .   S
    C189   O440      0.70111      .   S
    C191   O441      0.70257      .   S
    C193   O441      0.70257      .   S
    C276   O442      0.64713      .   S
    C176   O442      0.64713      .   S
    C276   O443      1.01254      .   S
    C0     O443      1.01254      .   S
    C277   O444      0.64667      .   S
    C177   O444      0.64667      .   S
    C277   O445      1.01214      .   S
    C1     O445      1.01214      .   S
    C168   O446      0.74505      .   S
    C176   O446      0.74505      .   S
    C168   O447      0.69880      .   S
    C170   O447      0.69880      .   S
    C169   O448      0.74507      .   S
    C177   O448      0.74507      .   S
    C169   O449      0.69882      .   S
    C171   O449      0.69882      .   S
    C188   O450      0.70489      .   S
    C186   O450      0.70489      .   S
    C189   O451      0.70434      .   S
    C187   O451      0.70434      .   S
    C173   O452      0.69917      .   S
    C170   O452      0.69917  1_455   S
    C173   O453      0.74498      .   S
    C179   O453      0.74498      .   S
    C172   O454      0.69913      .   S
    C171   O454      0.69913      .   S
    C172   O455      0.74496      .   S
    C178   O455      0.74496      .   S
    C56    O456      0.54501      .   S
    C192   O456      0.54501      .   S
    C57    O457      0.54502      .   S
    C193   O457      0.54502      .   S
    C176   O458      0.63415      .   S
    C278   O458      0.63415      .   S
    C177   O459      0.63415      .   S
    C279   O459      0.63415      .   S
    C283   O460      0.63312      .   S
    C179   O460      0.63312      .   S
    C283   O461      1.00811      .   S
    C1     O461      1.00811      .   S
    C282   O462      0.63311      .   S
    C178   O462      0.63311      .   S
    C282   O463      1.00812      .   S
    C0     O463      1.00812      .   S
    C192   O464      0.70387      .   S
    C182   O464      0.70387      .   S
    C193   O465      0.70387      .   S
    C183   O465      0.70387      .   S
    C170   O466      0.54397      .   S
    C50    O466      0.54397      .   S
    C171   O467      0.54396      .   S
    C51    O467      0.54396      .   S
    C179   O468      0.64719      .   S
    C281   O468      0.64719      .   S
    C178   O469      0.64721      .   S
    C280   O469      0.64721      .   S
    C294   O470      1.04565      .   S
    C0     O470      1.04565      .   S
    C294   O471      0.63473      .   S
    C194   O471      0.63473      .   S
    C295   O472      1.04567      .   S
    C1     O472      1.04567      .   S
    C295   O473      0.63463      .   S
    C195   O473      0.63463      .   S
    C0     O474      1.10063      .   S
    C278   O474      1.10063      .   S
    C0     O475      1.02094      .   S
    C268   O475      1.02094      .   S
    C1     O476      1.10066      .   S
    C279   O476      1.10066      .   S
    C1     O477      1.02089      .   S
    C269   O477      1.02089      .   S
    C186   O478      0.74107      .   S
    C194   O478      0.74107      .   S
    C186   O479      0.68828      .   S
    C184   O479      0.68828      .   S
    C187   O480      0.74103      .   S
    C195   O480      0.74103      .   S
    C187   O481      0.68826      .   S
    C185   O481      0.68826      .   S
    C194   O482      0.64489      .   S
    C292   O482      0.64489      .   S
    C195   O483      0.64505      .   S
    C293   O483      0.64505      .   S
    C182   O484      0.69006      .   S
    C184   O484      0.69006      .   S
    C182   O485      0.74307      .   S
    C180   O485      0.74307      .   S
    C183   O486      0.69005      .   S
    C185   O486      0.69005      .   S
    C183   O487      0.74299      .   S
    C181   O487      0.74299      .   S
    C280   O488      0.95782      .   S
    C2     O488      0.95782      .   S
    C281   O489      0.95781      .   S
    C3     O489      0.95781      .   S
    C290   O490      0.64526      .   S
    C180   O490      0.64526      .   S
    C290   O491      0.96671      .   S
    C6     O491      0.96671      .   S
    C291   O492      0.64523      .   S
    C181   O492      0.64523      .   S
    C291   O493      0.96662      .   S
    C7     O493      0.96662      .   S
    C180   O494      0.63242      .   S
    C288   O494      0.63242      .   S
    C181   O495      0.63250      .   S
    C289   O495      0.63250      .   S
    C268   O496      0.63257      .   S
    C100   O496      0.63257      .   S
    C269   O497      0.63252      .   S
    C101   O497      0.63252      .   S
    C292   O498      0.97268      .   S
    C2     O498      0.97268      .   S
    C293   O499      0.97269      .   S
    C3     O499      0.97269      .   S
    C2     O500      0.96650      .   S
    C270   O500      0.96650      .   S
    C3     O501      0.96656      .   S
    C271   O501      0.96656      .   S
    C6     O502      0.97268      .   S
    C272   O502      0.97268  1_545   S
    C6     O503      0.95758      .   S
    C300   O503      0.95758      .   S
    C7     O504      0.97270      .   S
    C273   O504      0.97270  1_545   S
    C7     O505      0.95762      .   S
    C301   O505      0.95762      .   S
    C272   O506      0.64472      .   S
    C114   O506      0.64472      .   S
    C273   O507      0.64490      .   S
    C115   O507      0.64490      .   S
    C288   O508      1.02099      .   S
    C4     O508      1.02099      .   S
    C289   O509      1.02096      .   S
    C5     O509      1.02096      .   S
    C100   O510      0.64519      .   S
    C270   O510      0.64519      .   S
    C100   O511      0.74298      .   S
    C102   O511      0.74298      .   S
    C101   O512      0.64521      .   S
    C271   O512      0.64521      .   S
    C101   O513      0.74306      .   S
    C103   O513      0.74306      .   S
    C105   O514      0.69003      .   S
    C103   O514      0.69003      .   S
    C105   O515      0.68832      .   S
    C107   O515      0.68832      .   S
    C104   O516      0.69002      .   S
    C102   O516      0.69002      .   S
    C104   O517      0.68831      .   S
    C106   O517      0.68831      .   S
    C300   O518      0.64717      .   S
    C258   O518      0.64717      .   S
    C301   O519      0.64717      .   S
    C259   O519      0.64717      .   S
    C102   O520      0.70397      .   S
    C112   O520      0.70397      .   S
    C103   O521      0.70387      .   S
    C113   O521      0.70387      .   S
    C114   O522      0.74110      .   S
    C106   O522      0.74110      .   S
    C114   O523      0.63508  1_545   S
    C274   O523      0.63508      .   S
    C115   O524      0.74105      .   S
    C107   O524      0.74105      .   S
    C115   O525      0.63494  1_545   S
    C275   O525      0.63494      .   S
    C97    O526      0.55099      .   S
    C251   O526      0.55099      .   S
    C96    O527      0.54394      .   S
    C250   O527      0.54394      .   S
    C298   O528      1.10100      .   S
    C4     O528      1.10100      .   S
    C298   O529      0.63385      .   S
    C256   O529      0.63385      .   S
    C299   O530      1.10103      .   S
    C5     O530      1.10103      .   S
    C299   O531      0.63412      .   S
    C257   O531      0.63412      .   S
    C106   O532      0.70432      .   S
    C108   O532      0.70432      .   S
    C107   O533      0.70429      .   S
    C109   O533      0.70429      .   S
    C4     O534      1.04519      .   S
    C274   O534      1.04519      .   S
    C4     O535      1.00862      .   S
    C302   O535      1.00862      .   S
    C4     O536      1.01176      .   S
    C296   O536      1.01176      .   S
    C5     O537      1.04520      .   S
    C275   O537      1.04520      .   S
    C5     O538      1.00860      .   S
    C303   O538      1.00860      .   S
    C5     O539      1.01198      .   S
    C297   O539      1.01198      .   S
    C258   O540      0.63317      .   S
    C302   O540      0.63317      .   S
    C258   O541      0.74498      .   S
    C252   O541      0.74498      .   S
    C259   O542      0.63316      .   S
    C303   O542      0.63316      .   S
    C259   O543      0.74498      .   S
    C253   O543      0.74498      .   S
    C251   O544      0.69915  1_655   S
    C252   O544      0.69915      .   S
    C251   O545      0.69876      .   S
    C249   O545      0.69876      .   S
    C250   O546      0.69915      .   S
    C253   O546      0.69915      .   S
    C250   O547      0.69880      .   S
    C248   O547      0.69880      .   S
    C112   O548      0.54503      .   S
    C10    O548      0.54503      .   S
    C112   O549      0.70253      .   S
    C110   O549      0.70253      .   S
    C113   O550      0.54504      .   S
    C11    O550      0.54504      .   S
    C113   O551      0.70262      .   S
    C111   O551      0.70262      .   S
    C256   O552      0.74514      .   S
    C248   O552      0.74514      .   S
    C256   O553      0.64663      .   S
    C296   O553      0.64663      .   S
    C257   O554      0.74507      .   S
    C249   O554      0.74507      .   S
    C257   O555      0.64666      .   S
    C297   O555      0.64666      .   S
    C252   O556      0.70166      .   S
    C254   O556      0.70166      .   S
    C253   O557      0.70169      .   S
    C255   O557      0.70169      .   S
    C109   O558      0.70114      .   S
    C111   O558      0.70114      .   S
    C109   O559      0.54515      .   S
    C9     O559      0.54515      .   S
    C108   O560      0.70113      .   S
    C110   O560      0.70113      .   S
    C108   O561      0.54514      .   S
    C8     O561      0.54514      .   S
    C249   O562      0.70080      .   S
    C247   O562      0.70080      .   S
    C248   O563      0.70082      .   S
    C246   O563      0.70082      .   S
    C110   O564      0.74204      .   S
    C116   O564      0.74204      .   S
    C111   O565      0.74203      .   S
    C117   O565      0.74203      .   S
    C12    O566      0.54383      .   S
    C120   O566      0.54383      .   S
    C13    O567      0.54384      .   S
    C121   O567      0.54384      .   S
    C261   O568      0.87376      .   S
    C123   O568      0.87376      .   S
    C260   O569      0.87374      .   S
    C122   O569      0.87374      .   S
    C254   O570      0.54471      .   S
    C98    O570      0.54471      .   S
    C254   O571      0.69943      .   S
    C244   O571      0.69943      .   S
    C255   O572      0.54471      .   S
    C99    O572      0.54471      .   S
    C255   O573      0.69918      .   S
    C245   O573      0.69918      .   S
    C247   O574      0.70042      .   S
    C244   O574      0.70042  1_455   S
    C247   O575      0.54481      .   S
    C95    O575      0.54481      .   S
    C246   O576      0.70034      .   S
    C245   O576      0.70034      .   S
    C246   O577      0.54482      .   S
    C94    O577      0.54482      .   S
    C120   O578      0.68853      .   S
    C123   O578      0.68853      .   S
    C120   O579      0.71051      .   S
    C118   O579      0.71051      .   S
    C121   O580      0.68852      .   S
    C122   O580      0.68852  1_455   S
    C121   O581      0.71070      .   S
    C119   O581      0.71070      .   S
    C116   O582      0.71489      .   S
    C118   O582      0.71489      .   S
    C116   O583      0.69363      .   S
    C138   O583      0.69363      .   S
    C117   O584      0.71493      .   S
    C119   O584      0.71493      .   S
    C117   O585      0.69361      .   S
    C139   O585      0.69361      .   S
    C80    O586      0.54427      .   S
    C230   O586      0.54427      .   S
    C81    O587      0.54419      .   S
    C231   O587      0.54419      .   S
    C244   O588      0.74536      .   S
    C234   O588      0.74536      .   S
    C245   O589      0.74564      .   S
    C235   O589      0.74564      .   S
    C123   O590      0.70602      .   S
    C125   O590      0.70602      .   S
    C122   O591      0.70603      .   S
    C124   O591      0.70603      .   S
    C267   O592      0.86802      .   S
    C229   O592      0.86802      .   S
    C266   O593      0.87190      .   S
    C228   O593      0.87190      .   S
    C29    O594      0.54409      .   S
    C139   O594      0.54409      .   S
    C28    O595      0.54411      .   S
    C138   O595      0.54411      .   S
    C118   O596      0.71999      .   S
    C128   O596      0.71999      .   S
    C119   O597      0.71971      .   S
    C129   O597      0.71971      .   S
    C139   O598      0.70630      .   S
    C133   O598      0.70630      .   S
    C138   O599      0.70611      .   S
    C132   O599      0.70611      .   S
    C230   O600      0.68852      .   S
    C228   O600      0.68852      .   S
    C230   O601      0.71039      .   S
    C232   O601      0.71039      .   S
    C231   O602      0.68664      .   S
    C229   O602      0.68664      .   S
    C231   O603      0.71045      .   S
    C233   O603      0.71045      .   S
    C229   O604      0.71354      .   S
    C227   O604      0.71354      .   S
    C228   O605      0.70712      .   S
    C226   O605      0.70712      .   S
    C234   O606      0.71277      .   S
    C232   O606      0.71277      .   S
    C234   O607      0.69223      .   S
    C236   O607      0.69223      .   S
    C235   O608      0.71279      .   S
    C233   O608      0.71279      .   S
    C235   O609      0.69222      .   S
    C237   O609      0.69222      .   S
    C125   O610      0.54407      .   S
    C15    O610      0.54407      .   S
    C125   O611      0.68764      .   S
    C127   O611      0.68764      .   S
    C124   O612      0.54408      .   S
    C14    O612      0.54408      .   S
    C124   O613      0.68768      .   S
    C126   O613      0.68768      .   S
    C19    O614      0.55118      .   S
    C135   O614      0.55118      .   S
    C18    O615      0.55104      .   S
    C134   O615      0.55104      .   S
    C128   O616      0.71131      .   S
    C127   O616      0.71131      .   S
    C128   O617      0.71259      .   S
    C130   O617      0.71259      .   S
    C129   O618      0.71134      .   S
    C126   O618      0.71134  1_455   S
    C129   O619      0.71255      .   S
    C131   O619      0.71255      .   S
    C232   O620      0.71957      .   S
    C222   O620      0.71957      .   S
    C233   O621      0.71959      .   S
    C223   O621      0.71959      .   S
    C46    O622      0.54859      .   S
    C162   O622      0.54859      .   S
    C47    O623      0.54853      .   S
    C163   O623      0.54853      .   S
    C82    O624      0.54405      .   S
    C236   O624      0.54405      .   S
    C83    O625      0.54406      .   S
    C237   O625      0.54406      .   S
    C20    O626      0.55181      .   S
    C134   O626      0.55181      .   S
    C21    O627      0.55182      .   S
    C135   O627      0.55182      .   S
    C132   O628      0.69785      .   S
    C130   O628      0.69785      .   S
    C132   O629      0.68319      .   S
    C284   O629      0.68319      .   S
    C133   O630      0.69780      .   S
    C131   O630      0.69780      .   S
    C133   O631      0.68306      .   S
    C285   O631      0.68306      .   S
    C127   O632      0.54451      .   S
    C17    O632      0.54451      .   S
    C126   O633      0.54451      .   S
    C16    O633      0.54451      .   S
    C43    O634      0.54892      .   S
    C163   O634      0.54892      .   S
    C42    O635      0.54893      .   S
    C162   O635      0.54893      .   S
    C236   O636      0.70731      .   S
    C238   O636      0.70731      .   S
    C237   O637      0.70733      .   S
    C239   O637      0.70733      .   S
    C134   O638      0.72124      .   S
    C284   O638      0.72124      .   S
    C134   O639      0.75674      .   S
    C136   O639      0.75674      .   S
    C135   O640      0.72125      .   S
    C285   O640      0.72125      .   S
    C135   O641      0.75673      .   S
    C137   O641      0.75673      .   S
    C131   O642      0.74285      .   S
    C141   O642      0.74285      .   S
    C130   O643      0.74285      .   S
    C140   O643      0.74285      .   S
    C226   O644      0.54464      .   S
    C78    O644      0.54464      .   S
    C226   O645      0.68822      .   S
    C224   O645      0.68822      .   S
    C227   O646      0.54465      .   S
    C79    O646      0.54465      .   S
    C227   O647      0.68827      .   S
    C225   O647      0.68827      .   S
    C163   O648      0.54919      .   S
    C45    O648      0.54919      .   S
    C163   O649      0.75659      .   S
    C161   O649      0.75659      .   S
    C162   O650      0.54919      .   S
    C44    O650      0.54919      .   S
    C162   O651      0.75651      .   S
    C160   O651      0.75651      .   S
    C222   O652      0.71156      .   S
    C224   O652      0.71156      .   S
    C223   O653      0.71157      .   S
    C225   O653      0.71157      .   S
    C25    O654      0.54909      .   S
    C137   O654      0.54909      .   S
    C24    O655      0.54907      .   S
    C136   O655      0.54907      .   S
    C287   O656      0.72128      .   S
    C161   O656      0.72128      .   S
    C286   O657      0.72125      .   S
    C160   O657      0.72125      .   S
    C136   O658      0.54905      .   S
    C22    O658      0.54905      .   S
    C137   O659      0.54906      .   S
    C23    O659      0.54906      .   S
