# CIF file generated by openbabel 2.4.90, see http://openbabel.sf.net
data_I
_chemical_name_common ''
_cell_length_a 20.521
_cell_length_b 16.616
_cell_length_c 19.798
_cell_angle_alpha 89.965
_cell_angle_beta 101.651
_cell_angle_gamma 90.041
_space_group_name_H-M_alt 'P 1'
_space_group_name_Hall 'P 1'
loop_
    _symmetry_equiv_pos_as_xyz
    x,y,z
loop_
    _atom_site_label
    _atom_site_type_symbol
    _atom_site_fract_x
    _atom_site_fract_y
    _atom_site_fract_z
    _atom_site_occupancy
    N0      N    0.69912   0.66990   0.35231   1.000
    N1      N    0.50129   0.80950   0.71629   1.000
    O2      O    0.64307   0.70151   0.17330   1.000
    N3      N    0.49867   0.30955   0.28361   1.000
    N4      N    0.30089   0.16986   0.64770   1.000
    O5      O    0.35693   0.20149   0.82650   1.000
    N6      N    0.19914   0.66990   0.35226   1.000
    N7      N    0.00130   0.80950   0.71617   1.000
    O8      O    0.06146   0.75921   0.90490   1.000
    N9      N    0.99867   0.30956   0.28360   1.000
    N10     N    0.80092   0.16985   0.64770   1.000
    O11     O    0.93852   0.25919   0.09483   1.000
    Zr12    Zr   0.29203   0.37370   0.41862   1.000
    O13     O    0.29792   0.29413   0.51086   1.000
    O14     O    0.37741   0.34764   0.36671   1.000
    O15     O    0.17133   0.34542   0.36155   1.000
    O16     O    0.26146   0.49470   0.39801   1.000
    Zr17    Zr   0.20798   0.87354   0.58122   1.000
    O18     O    0.20211   0.79407   0.48902   1.000
    O19     O    0.23857   0.99458   0.60189   1.000
    O20     O    0.32866   0.84533   0.63831   1.000
    O21     O    0.12257   0.84746   0.63308   1.000
    Zr22    Zr   0.70798   0.87355   0.58125   1.000
    O23     O    0.70210   0.79407   0.48906   1.000
    O24     O    0.73858   0.99458   0.60191   1.000
    O25     O    0.62257   0.84748   0.63314   1.000
    O26     O    0.82866   0.84533   0.63830   1.000
    Zr27    Zr   0.79204   0.37371   0.41863   1.000
    O28     O    0.76146   0.49470   0.39804   1.000
    O29     O    0.87741   0.34766   0.36671   1.000
    O30     O    0.67133   0.34542   0.36156   1.000
    O31     O    0.79794   0.29414   0.51087   1.000
loop_
    _geom_bond_atom_site_label_1
    _geom_bond_atom_site_label_2
    _geom_bond_distance
    _geom_bond_site_symmetry_2
    _ccdc_geom_bond_type
    N1     O2        9.10519  1_556   S
    N0     O2        3.53705      .   S
    N3     O5        9.10840  1_554   S
    N4     O5        3.53369      .   S
    N6     O8        8.86072  1_554   S
    N7     O8        3.78387      .   S
    N10    O11       8.85732  1_556   S
    N9     O11       3.78558      .   S
    Zr12   O13       2.23730      .   S
    N4     O13       3.39608      .   S
    Zr12   O14       2.24556      .   S
    N3     O14       3.31007      .   S
    Zr12   O15       2.54968      .   S
    N9     O15       3.61669  1_655   S
    Zr12   O16       2.12119      .   S
    N6     O16       3.23508      .   S
    Zr17   O18       2.23695      .   S
    N6     O18       3.39577      .   S
    Zr17   O19       2.12169      .   S
    N4     O19       3.23585  1_545   S
    Zr17   O20       2.54956      .   S
    N1     O20       3.61668      .   S
    Zr17   O21       2.24492      .   S
    N7     O21       3.30862      .   S
    Zr22   O23       2.23694      .   S
    N0     O23       3.39565      .   S
    Zr22   O24       2.12159      .   S
    N10    O24       3.23568  1_545   S
    Zr22   O25       2.24525      .   S
    N1     O25       3.30953      .   S
    Zr22   O26       2.54943      .   S
    N7     O26       3.61632  1_455   S
    Zr27   O28       2.12115      .   S
    N0     O28       3.23499      .   S
    Zr27   O29       2.24560      .   S
    N9     O29       3.31013      .   S
    Zr27   O30       2.54976      .   S
    N3     O30       3.61676      .   S
    Zr27   O31       2.23730      .   S
    N10    O31       3.39607      .   S
