# CIF file generated by openbabel 2.4.90, see http://openbabel.sf.net
data_I
_chemical_name_common ''
_cell_length_a 18.425
_cell_length_b 18.434
_cell_length_c 18.434
_cell_angle_alpha 60.137
_cell_angle_beta 60.147
_cell_angle_gamma 60.15
_space_group_name_H-M_alt 'P 1'
_space_group_name_Hall 'P 1'
loop_
    _symmetry_equiv_pos_as_xyz
    x,y,z
loop_
    _atom_site_label
    _atom_site_type_symbol
    _atom_site_fract_x
    _atom_site_fract_y
    _atom_site_fract_z
    _atom_site_occupancy
    H0      H    0.04830   0.56800   0.04856   1.000
    H1      H    0.56814   0.04804   0.33565   1.000
    H2      H    0.04797   0.33568   0.04750   1.000
    H3      H    0.33562   0.04835   0.56818   1.000
    H4      H    0.04796   0.04759   0.33567   1.000
    H5      H    0.56814   0.33567   0.04803   1.000
    H6      H    0.04830   0.04855   0.56800   1.000
    H7      H    0.33562   0.56817   0.04835   1.000
    H8      H    0.04817   0.33567   0.56817   1.000
    H9      H    0.56814   0.04837   0.04837   1.000
    H10     H    0.04818   0.56815   0.33565   1.000
    H11     H    0.33563   0.04779   0.04777   1.000
    H12     H    0.43189   0.95163   0.95161   1.000
    H13     H    0.95185   0.43184   0.66433   1.000
    H14     H    0.66439   0.95221   0.95221   1.000
    H15     H    0.95185   0.66433   0.43181   1.000
    H16     H    0.95207   0.95240   0.66431   1.000
    H17     H    0.66440   0.43182   0.95163   1.000
    H18     H    0.95172   0.95145   0.43198   1.000
    H19     H    0.43189   0.66433   0.95195   1.000
    H20     H    0.66441   0.95165   0.43181   1.000
    H21     H    0.95172   0.43200   0.95142   1.000
    H22     H    0.43189   0.95195   0.66433   1.000
    H23     H    0.95206   0.66431   0.95242   1.000
    C24     C    0.02676   0.53897   0.02691   1.000
    C25     C    0.53907   0.02662   0.40760   1.000
    C26     C    0.02656   0.40767   0.02634   1.000
    C27     C    0.40763   0.02679   0.53908   1.000
    C28     C    0.02656   0.02636   0.40766   1.000
    C29     C    0.53908   0.40766   0.02660   1.000
    C30     C    0.02676   0.02690   0.53890   1.000
    C31     C    0.40764   0.53909   0.02678   1.000
    C32     C    0.02668   0.40765   0.53908   1.000
    C33     C    0.53904   0.02680   0.02680   1.000
    C34     C    0.02668   0.53907   0.40764   1.000
    C35     C    0.40764   0.02647   0.02646   1.000
    C36     C    0.46098   0.97319   0.97318   1.000
    C37     C    0.97334   0.46092   0.59234   1.000
    C38     C    0.59238   0.97353   0.97352   1.000
    C39     C    0.97334   0.59234   0.46090   1.000
    C40     C    0.97347   0.97364   0.59230   1.000
    C41     C    0.59239   0.46091   0.97320   1.000
    C42     C    0.97326   0.97309   0.46102   1.000
    C43     C    0.46095   0.59234   0.97338   1.000
    C44     C    0.59239   0.97321   0.46090   1.000
    C45     C    0.97326   0.46103   0.97307   1.000
    C46     C    0.46095   0.97338   0.59234   1.000
    C47     C    0.97346   0.59233   0.97364   1.000
    C48     C    0.11099   0.38891   0.11094   1.000
    C49     C    0.05367   0.44629   0.05360   1.000
    C50     C    0.38903   0.11120   0.38910   1.000
    C51     C    0.44636   0.05374   0.44640   1.000
    C52     C    0.11099   0.11096   0.38890   1.000
    C53     C    0.05366   0.05361   0.44628   1.000
    C54     C    0.38903   0.38910   0.11121   1.000
    C55     C    0.44637   0.44640   0.05373   1.000
    C56     C    0.11113   0.38910   0.38910   1.000
    C57     C    0.05371   0.44639   0.44639   1.000
    C58     C    0.38895   0.11095   0.11094   1.000
    C59     C    0.44631   0.05363   0.05360   1.000
    C60     C    0.61107   0.88904   0.88904   1.000
    C61     C    0.55371   0.94636   0.94636   1.000
    C62     C    0.88889   0.61090   0.61088   1.000
    C63     C    0.94631   0.55361   0.55359   1.000
    C64     C    0.88904   0.88904   0.61108   1.000
    C65     C    0.94636   0.94638   0.55370   1.000
    C66     C    0.61099   0.61090   0.88878   1.000
    C67     C    0.55366   0.55359   0.94625   1.000
    C68     C    0.61099   0.88880   0.61088   1.000
    C69     C    0.55366   0.94626   0.55358   1.000
    C70     C    0.88903   0.61109   0.88904   1.000
    C71     C    0.94636   0.55371   0.94638   1.000
    O72     O    0.24997   0.25000   0.24999   1.000
    O73     O    0.75006   0.75000   0.74999   1.000
    O74     O    0.13326   0.42850   0.13310   1.000
    O75     O    0.42863   0.13343   0.30532   1.000
    O76     O    0.13290   0.30512   0.13290   1.000
    O77     O    0.30523   0.13329   0.42870   1.000
    O78     O    0.13289   0.13299   0.30511   1.000
    O79     O    0.42863   0.30532   0.13341   1.000
    O80     O    0.13324   0.13315   0.42850   1.000
    O81     O    0.30523   0.42870   0.13330   1.000
    O82     O    0.13327   0.30531   0.42870   1.000
    O83     O    0.42858   0.13317   0.13316   1.000
    O84     O    0.13326   0.42869   0.30531   1.000
    O85     O    0.30512   0.13293   0.13292   1.000
    O86     O    0.57144   0.86683   0.86682   1.000
    O87     O    0.86676   0.57131   0.69467   1.000
    O88     O    0.69491   0.86706   0.86706   1.000
    O89     O    0.86675   0.69468   0.57128   1.000
    O90     O    0.86713   0.86700   0.69487   1.000
    O91     O    0.69480   0.57130   0.86660   1.000
    O92     O    0.86678   0.86684   0.57148   1.000
    O93     O    0.57139   0.69467   0.86657   1.000
    O94     O    0.69480   0.86671   0.57128   1.000
    O95     O    0.86677   0.57149   0.86685   1.000
    O96     O    0.57139   0.86656   0.69460   1.000
    O97     O    0.86712   0.69488   0.86702   1.000
loop_
    _geom_bond_atom_site_label_1
    _geom_bond_atom_site_label_2
    _geom_bond_distance
    _geom_bond_site_symmetry_2
    _ccdc_geom_bond_type
    C26    H2        1.08869      .   S
    C26    C49       1.40312      .   S
    C26    C45       1.39028  1_454   S
    C35    H11       1.08863      .   S
    C35    C59       1.40289      .   S
    C35    C36       1.39061  1_544   S
    C29    H5        1.08859      .   S
    C29    C55       1.40318      .   S
    C29    C41       1.39016  1_554   S
    C31    H7        1.08860      .   S
    C31    C55       1.40319      .   S
    C31    C43       1.39016  1_554   S
    C33    H9        1.08870      .   S
    C33    C59       1.40341      .   S
    C33    C38       1.39061  1_544   S
    C24    H0        1.08856      .   S
    C24    C49       1.40333      .   S
    C24    C47       1.39028  1_454   S
    C49    C48       1.49582      .   S
    C59    C58       1.49639      .   S
    C55    C54       1.49539      .   S
    C48    O76       1.27743      .   S
    C48    O74       1.27668      .   S
    C58    O85       1.27732      .   S
    C58    O83       1.27718      .   S
    C54    O81       1.27711      .   S
    C54    O79       1.27713      .   S
    O78    C52       1.27726      .   S
    O84    C56       1.27722      .   S
    O75    C50       1.27711      .   S
    H10    C34       1.08857      .   S
    H1     C25       1.08797      .   S
    H4     C28       1.08866      .   S
    C52    O80       1.27709      .   S
    C52    C53       1.49581      .   S
    C50    O77       1.27711      .   S
    C50    C51       1.49538      .   S
    C56    O82       1.27717      .   S
    C56    C57       1.49541      .   S
    C25    C51       1.40324      .   S
    C25    C44       1.39090  1_545   S
    C34    C57       1.40323      .   S
    C34    C39       1.39027  1_455   S
    C28    C53       1.40310      .   S
    C28    C42       1.39002  1_445   S
    H15    C39       1.08861      .   S
    H20    C44       1.08859      .   S
    H18    C42       1.08867      .   S
    C53    C30       1.40230      .   S
    C57    C32       1.40328      .   S
    C51    C27       1.40314      .   S
    C44    C69       1.40314      .   S
    C39    C63       1.40328      .   S
    C42    C65       1.40326      .   S
    C30    H6        1.08962      .   S
    C30    C40       1.39004  1_445   S
    C32    H8        1.08861      .   S
    C32    C37       1.39027  1_455   S
    C27    H3        1.08860      .   S
    C27    C46       1.39038  1_545   S
    C69    C46       1.40318      .   S
    C69    C68       1.49538      .   S
    C63    C37       1.40323      .   S
    C63    C62       1.49541      .   S
    C65    C40       1.40276      .   S
    C65    C64       1.49583      .   S
    O94    C68       1.27711      .   S
    O89    C62       1.27717      .   S
    O92    C64       1.27709      .   S
    C40    H16       1.08898      .   S
    C37    H13       1.08857      .   S
    C46    H22       1.08855      .   S
    C62    O87       1.27722      .   S
    C68    O96       1.27626      .   S
    C64    O90       1.27726      .   S
    O93    C66       1.27713      .   S
    O91    C66       1.27713      .   S
    O86    C60       1.27715      .   S
    O95    C70       1.27708      .   S
    O97    C70       1.27729      .   S
    O88    C60       1.27732      .   S
    C66    C67       1.49538      .   S
    C70    C71       1.49583      .   S
    C60    C61       1.49614      .   S
    C67    C41       1.40319      .   S
    C67    C43       1.40318      .   S
    C61    C36       1.40339      .   S
    C61    C38       1.40318      .   S
    C71    C45       1.40333      .   S
    C71    C47       1.40311      .   S
    H21    C45       1.08857      .   S
    H12    C36       1.08870      .   S
    H17    C41       1.08860      .   S
    H19    C43       1.08859      .   S
    H14    C38       1.08862      .   S
    H23    C47       1.08863      .   S
