# CIF file generated by openbabel 2.4.90, see http://openbabel.sf.net
data_I
_chemical_name_common ''
_cell_length_a 14.331
_cell_length_b 14.334
_cell_length_c 26.528
_cell_angle_alpha 80.065
_cell_angle_beta 80.129
_cell_angle_gamma 86.374
_space_group_name_H-M_alt 'P 1'
_space_group_name_Hall 'P 1'
loop_
    _symmetry_equiv_pos_as_xyz
    x,y,z
loop_
    _atom_site_label
    _atom_site_type_symbol
    _atom_site_fract_x
    _atom_site_fract_y
    _atom_site_fract_z
    _atom_site_occupancy
    Lv0     Lv   0.71338   0.67720   0.31539   1.000
    Lv1     Lv   0.15594   0.20535   0.92885   1.000
    Lv2     Lv   0.28682   0.32244   0.68469   1.000
    Lv3     Lv   0.01172   0.75528   0.21859   1.000
    Lv4     Lv   0.75486   0.01094   0.71887   1.000
    Lv5     Lv   0.67698   0.71169   0.81545   1.000
    Lv6     Lv   0.32315   0.28825   0.18452   1.000
    Lv7     Lv   0.24505   0.99052   0.28115   1.000
    Lv8     Lv   0.99021   0.24412   0.78139   1.000
    Lv9     Lv   0.84403   0.79471   0.07115   1.000
    Lv10    Lv   0.20851   0.15587   0.42881   1.000
    Lv11    Lv   0.79178   0.84374   0.57121   1.000
