# CIF file generated by openbabel 2.4.90, see http://openbabel.sf.net
data_I
_chemical_name_common ''
_cell_length_a 14.331
_cell_length_b 14.334
_cell_length_c 26.528
_cell_angle_alpha 80.065
_cell_angle_beta 80.129
_cell_angle_gamma 86.374
_space_group_name_H-M_alt 'P 1'
_space_group_name_Hall 'P 1'
loop_
    _symmetry_equiv_pos_as_xyz
    x,y,z
loop_
    _atom_site_label
    _atom_site_type_symbol
    _atom_site_fract_x
    _atom_site_fract_y
    _atom_site_fract_z
    _atom_site_occupancy
    N0      N    0.71338   0.67720   0.31539   1.000
    N1      N    0.15594   0.20535   0.92885   1.000
    N2      N    0.28682   0.32244   0.68469   1.000
    N3      N    0.01172   0.75528   0.21859   1.000
    N4      N    0.75486   0.01094   0.71887   1.000
    N5      N    0.67698   0.71169   0.81545   1.000
    N6      N    0.32315   0.28825   0.18452   1.000
    N7      N    0.24505   0.99052   0.28115   1.000
    N8      N    0.99021   0.24412   0.78139   1.000
    N9      N    0.84403   0.79471   0.07115   1.000
    N10     N    0.20851   0.15587   0.42881   1.000
    N11     N    0.79178   0.84374   0.57121   1.000
    Zr12    Zr   0.27384   0.88829   0.58991   1.000
    O13     O    0.45368   0.86706   0.57929   1.000
    O14     O    0.15785   0.01989   0.65303   1.000
    O15     O    0.27337   0.91838   0.47850   1.000
    O16     O    0.29668   0.02908   0.62836   1.000
    O17     O    0.11077   0.87193   0.58409   1.000
    O18     O    0.27888   0.68683   0.62511   1.000
    Zr19    Zr   0.72616   0.11101   0.41015   1.000
    O20     O    0.84263   0.97929   0.34704   1.000
    O21     O    0.72661   0.08159   0.52154   1.000
    O22     O    0.72122   0.31257   0.37495   1.000
    O23     O    0.54638   0.13239   0.42075   1.000
    O24     O    0.70337   0.97040   0.37168   1.000
    O25     O    0.88930   0.12749   0.41595   1.000
    Zr26    Zr   0.11090   0.72416   0.91025   1.000
    O27     O    0.97893   0.84135   0.84727   1.000
    O28     O    0.31237   0.71886   0.87496   1.000
    O29     O    0.13222   0.54377   0.92087   1.000
    O30     O    0.08181   0.72526   0.02151   1.000
    O31     O    0.12757   0.88666   0.91598   1.000
    O32     O    0.97034   0.70189   0.87178   1.000
    Zr33    Zr   0.88909   0.27569   0.08971   1.000
    O34     O    0.02968   0.29800   0.12818   1.000
    O35     O    0.68765   0.28104   0.12501   1.000
    O36     O    0.86777   0.45615   0.07910   1.000
    O37     O    0.02102   0.15893   0.15272   1.000
    O38     O    0.91866   0.27441   0.97846   1.000
    O39     O    0.87241   0.11324   0.08400   1.000
loop_
    _geom_bond_atom_site_label_1
    _geom_bond_atom_site_label_2
    _geom_bond_distance
    _geom_bond_site_symmetry_2
    _ccdc_geom_bond_type
    Zr12   O13       2.54877      .   S
    N11    O13       4.80609      .   S
    Zr12   O14       2.97738  1_565   S
    N8     O14       5.26223  1_655   S
    Zr12   O15       2.91335      .   S
    N7     O15       5.23924      .   S
    Zr12   O16       2.47560  1_565   S
    N2     O16       4.68570      .   S
    Zr12   O17       2.39693      .   S
    N11    O17       4.68987  1_655   S
    Zr12   O18       2.87806      .   S
    N2     O18       5.18940      .   S
    Zr19   O20       2.98133  1_545   S
    N3     O20       5.26816  1_455   S
    Zr19   O21       2.91287      .   S
    N4     O21       5.23824      .   S
    Zr19   O22       2.87930      .   S
    N0     O22       5.19253      .   S
    Zr19   O23       2.54800      .   S
    N10    O23       4.80297      .   S
    Zr19   O24       2.47347  1_545   S
    N0     O24       4.68286      .   S
    Zr19   O25       2.39808      .   S
    N10    O25       4.69332  1_455   S
    Zr26   O27       2.98377  1_455   S
    N4     O27       5.26580  1_545   S
    Zr26   O28       2.87912      .   S
    N5     O28       5.19281      .   S
    Zr26   O29       2.55674      .   S
    N1     O29       4.81181      .   S
    Zr26   O30       2.91175  1_556   S
    N3     O30       5.23916      .   S
    Zr26   O31       2.38977      .   S
    N1     O31       4.68712  1_545   S
    Zr26   O32       2.46960  1_455   S
    N5     O32       4.68342      .   S
    Zr33   O34       2.47032  1_655   S
    N6     O34       4.68493      .   S
    Zr33   O35       2.87860      .   S
    N6     O35       5.19136      .   S
    Zr33   O36       2.55766      .   S
    N9     O36       4.81388      .   S
    Zr33   O37       2.98120  1_655   S
    N7     O37       5.26063  1_565   S
    Zr33   O38       2.91200  1_554   S
    N8     O38       5.24010      .   S
    Zr33   O39       2.38890      .   S
    N9     O39       4.68496  1_565   S
