# CIF file generated by openbabel 2.4.90, see http://openbabel.sf.net
data_I
_chemical_name_common ''
_cell_length_a 19.848
_cell_length_b 19.84
_cell_length_c 15.506
_cell_angle_alpha 74.229
_cell_angle_beta 74.301
_cell_angle_gamma 82.636
_space_group_name_H-M_alt 'P 1'
_space_group_name_Hall 'P 1'
loop_
    _symmetry_equiv_pos_as_xyz
    x,y,z
loop_
    _atom_site_label
    _atom_site_type_symbol
    _atom_site_fract_x
    _atom_site_fract_y
    _atom_site_fract_z
    _atom_site_occupancy
    N0      N    0.03146   0.34173   0.37404   1.000
    N1      N    0.03147   0.84172   0.37404   1.000
    N2      N    0.89483   0.02086   0.16943   1.000
    N3      N    0.89483   0.52086   0.16943   1.000
    N4      N    0.34166   0.03139   0.87406   1.000
    N5      N    0.67789   0.06168   0.42143   1.000
    N6      N    0.17789   0.56167   0.42143   1.000
    N7      N    0.97911   0.10509   0.33069   1.000
    N8      N    0.65838   0.46861   0.12593   1.000
    N9      N    0.46856   0.15829   0.62595   1.000
    N10     N    0.46856   0.65829   0.62595   1.000
    N11     N    0.52091   0.39492   0.66931   1.000
    N12     N    0.52092   0.89491   0.66931   1.000
    N13     N    0.34166   0.53139   0.87406   1.000
    N14     N    0.60521   0.97914   0.83056   1.000
    N15     N    0.06155   0.67747   0.92191   1.000
    N16     N    0.43849   0.82253   0.07808   1.000
    N17     N    0.47912   0.60509   0.33069   1.000
    N18     N    0.67789   0.56167   0.42143   1.000
    N19     N    0.10521   0.97914   0.83056   1.000
    N20     N    0.97912   0.60509   0.33069   1.000
    N21     N    0.47911   0.10509   0.33069   1.000
    N22     N    0.10521   0.47914   0.83056   1.000
    N23     N    0.15837   0.46861   0.12593   1.000
    N24     N    0.84166   0.03139   0.87406   1.000
    N25     N    0.15838   0.96861   0.12593   1.000
    N26     N    0.93849   0.82253   0.07808   1.000
    N27     N    0.96857   0.65829   0.62594   1.000
    N28     N    0.39482   0.52086   0.16942   1.000
    N29     N    0.84166   0.53139   0.87406   1.000
    N30     N    0.43848   0.32253   0.07808   1.000
    N31     N    0.17788   0.06168   0.42143   1.000
    N32     N    0.02091   0.39492   0.66931   1.000
    N33     N    0.39482   0.02086   0.16942   1.000
    N34     N    0.53147   0.34173   0.37393   1.000
    N35     N    0.53147   0.84172   0.37393   1.000
    N36     N    0.32214   0.43834   0.57854   1.000
    N37     N    0.32214   0.93834   0.57854   1.000
    N38     N    0.06155   0.17748   0.92191   1.000
    N39     N    0.56156   0.67747   0.92191   1.000
    N40     N    0.96856   0.15829   0.62594   1.000
    N41     N    0.82215   0.93834   0.57854   1.000
    N42     N    0.02092   0.89491   0.66931   1.000
    N43     N    0.82214   0.43834   0.57854   1.000
    N44     N    0.56155   0.17748   0.92191   1.000
    N45     N    0.60521   0.47914   0.83056   1.000
    N46     N    0.65838   0.96861   0.12593   1.000
    N47     N    0.93849   0.32253   0.07808   1.000
    Zr48    Zr   0.34084   0.03168   0.37402   1.000
    O49     O    0.33632   0.99961   0.43736   1.000
    O50     O    0.28955   0.04440   0.38724   1.000
    O51     O    0.38279   0.05790   0.36174   1.000
    O52     O    0.35752   0.02469   0.31059   1.000
    Zr53    Zr   0.05934   0.68215   0.41978   1.000
    O54     O    0.03117   0.65989   0.39225   1.000
    O55     O    0.03309   0.67454   0.48639   1.000
    O56     O    0.05424   0.73321   0.40203   1.000
    O57     O    0.09871   0.64568   0.41649   1.000
    Zr58    Zr   0.84084   0.53167   0.37402   1.000
    O59     O    0.85752   0.52469   0.31059   1.000
    O60     O    0.88279   0.55789   0.36174   1.000
    O61     O    0.78956   0.54439   0.38724   1.000
    O62     O    0.83632   0.49961   0.43736   1.000
    Zr63    Zr   0.94068   0.31786   0.58021   1.000
    O64     O    0.94579   0.26680   0.59796   1.000
    O65     O    0.96693   0.32547   0.51360   1.000
    O66     O    0.96886   0.34012   0.60774   1.000
    O67     O    0.90132   0.35433   0.58349   1.000
    Zr68    Zr   0.96836   0.15899   0.12580   1.000
    O69     O    0.00039   0.16329   0.06270   1.000
    O70     O    0.95576   0.21046   0.11231   1.000
    O71     O    0.94206   0.11710   0.13821   1.000
    O72     O    0.97529   0.14237   0.18934   1.000
    Zr73    Zr   0.09864   0.48317   0.33179   1.000
    O74     O    0.05888   0.51998   0.33486   1.000
    O75     O    0.11749   0.48150   0.26526   1.000
    O76     O    0.07965   0.43667   0.34821   1.000
    O77     O    0.12613   0.50540   0.36048   1.000
    Zr78    Zr   0.46836   0.65898   0.12580   1.000
    O79     O    0.50040   0.66329   0.06270   1.000
    O80     O    0.45576   0.71046   0.11231   1.000
    O81     O    0.47529   0.64237   0.18934   1.000
    O82     O    0.44206   0.61710   0.13820   1.000
    Zr83    Zr   0.81774   0.94054   0.08038   1.000
    O84     O    0.76674   0.94569   0.09809   1.000
    O85     O    0.85429   0.90130   0.08350   1.000
    O86     O    0.82535   0.96682   0.01373   1.000
    O87     O    0.84001   0.96874   0.10789   1.000
    Zr88    Zr   0.48314   0.09845   0.83192   1.000
    O89     O    0.43664   0.07949   0.84830   1.000
    O90     O    0.50536   0.12590   0.86067   1.000
    O91     O    0.52000   0.05875   0.83492   1.000
    O92     O    0.48145   0.11733   0.76536   1.000
    Zr93    Zr   0.34084   0.53167   0.37402   1.000
    O94     O    0.38279   0.55789   0.36174   1.000
    O95     O    0.33632   0.49961   0.43736   1.000
    O96     O    0.35752   0.52469   0.31059   1.000
    O97     O    0.28956   0.54439   0.38724   1.000
    Zr98    Zr   0.31773   0.94054   0.08038   1.000
    O99     O    0.34001   0.96874   0.10789   1.000
    O100    O    0.26674   0.94569   0.09809   1.000
    O101    O    0.32534   0.96682   0.01373   1.000
    O102    O    0.35429   0.90130   0.08350   1.000
    Zr103   Zr   0.01689   0.40155   0.16808   1.000
    O104    O    0.99467   0.37411   0.13933   1.000
    O105    O    0.06338   0.42051   0.15169   1.000
    O106    O    0.01857   0.38268   0.23463   1.000
    O107    O    0.98003   0.44125   0.16508   1.000
    Zr108   Zr   0.68230   0.05946   0.91961   1.000
    O109    O    0.67469   0.03318   0.98625   1.000
    O110    O    0.66002   0.03126   0.89210   1.000
    O111    O    0.64575   0.09870   0.91649   1.000
    O112    O    0.73330   0.05431   0.90189   1.000
    Zr113   Zr   0.48314   0.59845   0.83192   1.000
    O114    O    0.52000   0.55875   0.83492   1.000
    O115    O    0.50537   0.62589   0.86067   1.000
    O116    O    0.43665   0.57949   0.84830   1.000
    O117    O    0.48145   0.61733   0.76536   1.000
    Zr118   Zr   0.68230   0.55945   0.91961   1.000
    O119    O    0.64575   0.59870   0.91649   1.000
    O120    O    0.66002   0.53126   0.89210   1.000
    O121    O    0.73330   0.55431   0.90189   1.000
    O122    O    0.67469   0.53318   0.98626   1.000
    Zr123   Zr   0.51689   0.40155   0.16808   1.000
    O124    O    0.51858   0.38268   0.23453   1.000
    O125    O    0.49467   0.37411   0.13933   1.000
    O126    O    0.48003   0.44125   0.16508   1.000
    O127    O    0.56339   0.42051   0.15169   1.000
    Zr128   Zr   0.81773   0.44055   0.08038   1.000
    O129    O    0.85428   0.40131   0.08350   1.000
    O130    O    0.84001   0.46875   0.10789   1.000
    O131    O    0.82535   0.46682   0.01373   1.000
    O132    O    0.76673   0.44570   0.09810   1.000
    Zr133   Zr   0.31773   0.44055   0.08038   1.000
    O134    O    0.26673   0.44570   0.09809   1.000
    O135    O    0.32534   0.46682   0.01374   1.000
    O136    O    0.35428   0.40131   0.08350   1.000
    O137    O    0.34001   0.46875   0.10789   1.000
    Zr138   Zr   0.53168   0.84102   0.87418   1.000
    O139    O    0.49965   0.83672   0.93728   1.000
    O140    O    0.54428   0.78954   0.88767   1.000
    O141    O    0.52475   0.85764   0.81064   1.000
    O142    O    0.55798   0.88290   0.86177   1.000
    Zr143   Zr   0.96836   0.65898   0.12580   1.000
    O144    O    0.95576   0.71046   0.11231   1.000
    O145    O    0.97529   0.64237   0.18934   1.000
    O146    O    0.94207   0.61710   0.13821   1.000
    O147    O    0.00040   0.66329   0.06270   1.000
    Zr148   Zr   0.94069   0.81785   0.58021   1.000
    O149    O    0.96886   0.84011   0.60774   1.000
    O150    O    0.96694   0.82546   0.51360   1.000
    O151    O    0.94579   0.76679   0.59796   1.000
    O152    O    0.90132   0.85433   0.58349   1.000
    Zr153   Zr   0.15919   0.46834   0.62597   1.000
    O154    O    0.21047   0.45562   0.61274   1.000
    O155    O    0.14251   0.47532   0.68940   1.000
    O156    O    0.11723   0.44212   0.63825   1.000
    O157    O    0.16371   0.50040   0.56263   1.000
    Zr158   Zr   0.05934   0.18216   0.41978   1.000
    O159    O    0.03309   0.17455   0.48639   1.000
    O160    O    0.05424   0.23322   0.40203   1.000
    O161    O    0.09870   0.14569   0.41649   1.000
    O162    O    0.03117   0.15989   0.39225   1.000
    Zr163   Zr   0.55934   0.18216   0.41978   1.000
    O164    O    0.55424   0.23322   0.40200   1.000
    O165    O    0.53309   0.17455   0.48639   1.000
    O166    O    0.59871   0.14569   0.41649   1.000
    O167    O    0.53117   0.15989   0.39225   1.000
    Zr168   Zr   0.46836   0.15899   0.12580   1.000
    O169    O    0.47529   0.14237   0.18934   1.000
    O170    O    0.45575   0.21046   0.11231   1.000
    O171    O    0.50039   0.16329   0.06270   1.000
    O172    O    0.44206   0.11710   0.13820   1.000
    Zr173   Zr   0.01689   0.90155   0.16808   1.000
    O174    O    0.06339   0.92051   0.15169   1.000
    O175    O    0.01858   0.88267   0.23463   1.000
    O176    O    0.98003   0.94125   0.16508   1.000
    O177    O    0.99467   0.87410   0.13933   1.000
    Zr178   Zr   0.03168   0.84102   0.87418   1.000
    O179    O    0.05797   0.88290   0.86177   1.000
    O180    O    0.99965   0.83672   0.93728   1.000
    O181    O    0.04428   0.78954   0.88767   1.000
    O182    O    0.02475   0.85764   0.81064   1.000
    Zr183   Zr   0.51690   0.90155   0.16808   1.000
    O184    O    0.51858   0.88267   0.23453   1.000
    O185    O    0.56339   0.92051   0.15169   1.000
    O186    O    0.49467   0.87410   0.13933   1.000
    O187    O    0.48003   0.94125   0.16508   1.000
    Zr188   Zr   0.59864   0.48317   0.33179   1.000
    O189    O    0.62613   0.50540   0.36048   1.000
    O190    O    0.55889   0.51998   0.33486   1.000
    O191    O    0.57965   0.43667   0.34818   1.000
    O192    O    0.61749   0.48150   0.26526   1.000
    Zr193   Zr   0.84084   0.03168   0.37402   1.000
    O194    O    0.83632   0.99961   0.43736   1.000
    O195    O    0.85752   0.02469   0.31059   1.000
    O196    O    0.78956   0.04440   0.38724   1.000
    O197    O    0.88279   0.05790   0.36174   1.000
    Zr198   Zr   0.59864   0.98316   0.33179   1.000
    O199    O    0.57966   0.93667   0.34818   1.000
    O200    O    0.61749   0.98149   0.26526   1.000
    O201    O    0.62613   0.00540   0.36048   1.000
    O202    O    0.55889   0.01997   0.33486   1.000
    Zr203   Zr   0.15919   0.96833   0.62597   1.000
    O204    O    0.14251   0.97532   0.68940   1.000
    O205    O    0.21047   0.95561   0.61274   1.000
    O206    O    0.11724   0.94211   0.63825   1.000
    O207    O    0.16371   0.00040   0.56263   1.000
    Zr208   Zr   0.40139   0.51684   0.66820   1.000
    O209    O    0.38254   0.51851   0.73473   1.000
    O210    O    0.44115   0.48003   0.66513   1.000
    O211    O    0.37390   0.49461   0.63951   1.000
    O212    O    0.42038   0.56334   0.65178   1.000
    Zr213   Zr   0.90139   0.01685   0.66820   1.000
    O214    O    0.92038   0.06334   0.65177   1.000
    O215    O    0.87390   0.99461   0.63951   1.000
    O216    O    0.88254   0.01851   0.73473   1.000
    O217    O    0.94115   0.98004   0.66513   1.000
    Zr218   Zr   0.40139   0.01685   0.66820   1.000
    O219    O    0.37390   0.99461   0.63951   1.000
    O220    O    0.42038   0.06334   0.65178   1.000
    O221    O    0.38254   0.01851   0.73473   1.000
    O222    O    0.44115   0.98004   0.66513   1.000
    Zr223   Zr   0.44068   0.31786   0.58021   1.000
    O224    O    0.44579   0.26680   0.59796   1.000
    O225    O    0.46886   0.34012   0.60774   1.000
    O226    O    0.46693   0.32547   0.51358   1.000
    O227    O    0.40132   0.35433   0.58349   1.000
    Zr228   Zr   0.98314   0.59845   0.83192   1.000
    O229    O    0.98146   0.61733   0.76536   1.000
    O230    O    0.02000   0.55875   0.83492   1.000
    O231    O    0.00537   0.62589   0.86067   1.000
    O232    O    0.93665   0.57949   0.84830   1.000
    Zr233   Zr   0.09864   0.98316   0.33179   1.000
    O234    O    0.12613   0.00540   0.36048   1.000
    O235    O    0.11749   0.98149   0.26526   1.000
    O236    O    0.07965   0.93667   0.34821   1.000
    O237    O    0.05888   0.01997   0.33486   1.000
    Zr238   Zr   0.98314   0.09845   0.83192   1.000
    O239    O    0.02000   0.05875   0.83492   1.000
    O240    O    0.00536   0.12590   0.86067   1.000
    O241    O    0.93665   0.07949   0.84830   1.000
    O242    O    0.98145   0.11733   0.76536   1.000
    Zr243   Zr   0.44068   0.81785   0.58021   1.000
    O244    O    0.46694   0.82546   0.51358   1.000
    O245    O    0.40132   0.85433   0.58349   1.000
    O246    O    0.46886   0.84011   0.60774   1.000
    O247    O    0.44579   0.76679   0.59796   1.000
    Zr248   Zr   0.03168   0.34102   0.87418   1.000
    O249    O    0.05797   0.38290   0.86177   1.000
    O250    O    0.04428   0.28955   0.88767   1.000
    O251    O    0.02474   0.35764   0.81064   1.000
    O252    O    0.99964   0.33672   0.93728   1.000
    Zr253   Zr   0.65919   0.46834   0.62597   1.000
    O254    O    0.64251   0.47532   0.68940   1.000
    O255    O    0.66371   0.50040   0.56263   1.000
    O256    O    0.71047   0.45562   0.61274   1.000
    O257    O    0.61724   0.44212   0.63825   1.000
    Zr258   Zr   0.65919   0.96833   0.62597   1.000
    O259    O    0.71048   0.95561   0.61274   1.000
    O260    O    0.66371   0.00040   0.56263   1.000
    O261    O    0.64251   0.97532   0.68940   1.000
    O262    O    0.61724   0.94211   0.63825   1.000
    Zr263   Zr   0.90140   0.51684   0.66820   1.000
    O264    O    0.87391   0.49461   0.63951   1.000
    O265    O    0.94115   0.48003   0.66513   1.000
    O266    O    0.88255   0.51851   0.73473   1.000
    O267    O    0.92038   0.56334   0.65177   1.000
    Zr268   Zr   0.55935   0.68215   0.41978   1.000
    O269    O    0.53117   0.65989   0.39225   1.000
    O270    O    0.59871   0.64568   0.41649   1.000
    O271    O    0.53310   0.67454   0.48639   1.000
    O272    O    0.55424   0.73321   0.40200   1.000
    Zr273   Zr   0.53168   0.34102   0.87418   1.000
    O274    O    0.55797   0.38290   0.86177   1.000
    O275    O    0.54428   0.28955   0.88767   1.000
    O276    O    0.52474   0.35764   0.81064   1.000
    O277    O    0.49964   0.33672   0.93728   1.000
    Zr278   Zr   0.18230   0.05946   0.91961   1.000
    O279    O    0.16002   0.03126   0.89210   1.000
    O280    O    0.14575   0.09870   0.91648   1.000
    O281    O    0.17469   0.03318   0.98625   1.000
    O282    O    0.23330   0.05431   0.90189   1.000
    Zr283   Zr   0.18230   0.55946   0.91961   1.000
    O284    O    0.16002   0.53126   0.89210   1.000
    O285    O    0.17469   0.53318   0.98625   1.000
    O286    O    0.23330   0.55431   0.90189   1.000
    O287    O    0.14575   0.59870   0.91648   1.000
loop_
    _geom_bond_atom_site_label_1
    _geom_bond_atom_site_label_2
    _geom_bond_distance
    _geom_bond_site_symmetry_2
    _ccdc_geom_bond_type
    Zr48   O49       1.00230  1_545   S
    N37    O49       2.15812      .   S
    Zr48   O50       0.99552      .   S
    N31    O50       2.13992      .   S
    Zr48   O51       0.98569      .   S
    N21    O51       2.11645      .   S
    Zr48   O52       0.99116      .   S
    N33    O52       2.13182      .   S
    Zr53   O54       0.99249      .   S
    N20    O54       2.13230  1_655   S
    Zr53   O55       1.00254      .   S
    N27    O55       2.15727  1_655   S
    Zr53   O56       0.97438      .   S
    N1     O56       2.09187      .   S
    Zr53   O57       0.99513      .   S
    N6     O57       2.13958      .   S
    Zr58   O59       0.99110      .   S
    N3     O59       2.13170      .   S
    Zr58   O60       0.98569      .   S
    N20    O60       2.11643      .   S
    Zr58   O61       0.99552      .   S
    N18    O61       2.13992      .   S
    Zr58   O62       1.00226      .   S
    N43    O62       2.15807      .   S
    Zr63   O64       0.97438      .   S
    N40    O64       2.09187      .   S
    Zr63   O65       1.00253      .   S
    N0     O65       2.15731  1_455   S
    Zr63   O66       0.99249      .   S
    N32    O66       2.13231  1_455   S
    Zr63   O67       0.99514      .   S
    N43    O67       2.13961      .   S
    Zr68   O69       1.00037  1_655   S
    N38    O69       2.15363  1_556   S
    Zr68   O70       0.99798      .   S
    N47    O70       2.14580      .   S
    Zr68   O71       0.98479      .   S
    N2     O71       2.11435      .   S
    Zr68   O72       0.99174      .   S
    N7     O72       2.13323      .   S
    Zr73   O74       1.00450      .   S
    N20    O74       2.16173  1_655   S
    Zr73   O75       1.00588      .   S
    N23    O75       2.16557      .   S
    Zr73   O76       0.98348      .   S
    N0     O76       2.11377      .   S
    Zr73   O77       0.99498      .   S
    N6     O77       2.14199      .   S
    Zr78   O79       1.00037      .   S
    N39    O79       2.15360  1_556   S
    Zr78   O80       0.99798      .   S
    N16    O80       2.14580      .   S
    Zr78   O81       0.99175      .   S
    N17    O81       2.13323      .   S
    Zr78   O82       0.98481      .   S
    N28    O82       2.11433      .   S
    Zr83   O84       0.97404      .   S
    N46    O84       2.09101      .   S
    Zr83   O85       0.99426      .   S
    N26    O85       2.13741      .   S
    Zr83   O86       1.00268      .   S
    N24    O86       2.15764  1_546   S
    Zr83   O87       0.99281      .   S
    N2     O87       2.13299  1_545   S
    Zr88   O89       0.98378      .   S
    N4     O89       2.11448      .   S
    Zr88   O90       0.99488      .   S
    N44    O90       2.14173      .   S
    Zr88   O91       1.00427      .   S
    N14    O91       2.16125  1_565   S
    Zr88   O92       1.00590      .   S
    N9     O92       2.16560      .   S
    Zr93   O94       0.98570      .   S
    N17    O94       2.11646      .   S
    Zr93   O95       1.00226      .   S
    N36    O95       2.15807      .   S
    Zr93   O96       0.99114      .   S
    N28    O96       2.13181      .   S
    Zr93   O97       0.99552      .   S
    N6     O97       2.13992      .   S
    Zr98   O99       0.99278      .   S
    N33    O99       2.13291  1_545   S
    Zr98   O100      0.97404      .   S
    N25    O100      2.09101      .   S
    Zr98   O101      1.00268      .   S
    N4     O101      2.15764  1_546   S
    Zr98   O102      0.99426      .   S
    N16    O102      2.13741      .   S
    Zr103  O104      0.99483  1_455   S
    N47    O104      2.14164      .   S
    Zr103  O105      0.98379      .   S
    N23    O105      2.11451      .   S
    Zr103  O106      1.00587      .   S
    N0     O106      2.16557      .   S
    Zr103  O107      1.00422  1_455   S
    N3     O107      2.16113      .   S
    Zr108  O109      1.00268      .   S
    N46    O109      2.15764  1_564   S
    Zr108  O110      0.99282      .   S
    N14    O110      2.13301  1_565   S
    Zr108  O111      0.99425      .   S
    N44    O111      2.13737      .   S
    Zr108  O112      0.97404      .   S
    N24    O112      2.09101      .   S
    Zr113  O114      1.00424      .   S
    N45    O114      2.16115      .   S
    Zr113  O115      0.99488      .   S
    N39    O115      2.14173      .   S
    Zr113  O116      0.98378      .   S
    N13    O116      2.11449      .   S
    Zr113  O117      1.00590      .   S
    N10    O117      2.16560      .   S
    Zr118  O119      0.99425      .   S
    N39    O119      2.13738      .   S
    Zr118  O120      0.99280      .   S
    N45    O120      2.13299      .   S
    Zr118  O121      0.97403      .   S
    N29    O121      2.09098      .   S
    Zr118  O122      1.00266      .   S
    N8     O122      2.15759  1_554   S
    Zr123  O124      1.00437      .   S
    N34    O124      2.16536      .   S
    Zr123  O125      0.99485      .   S
    N30    O125      2.14168      .   S
    Zr123  O126      1.00425      .   S
    N28    O126      2.16117      .   S
    Zr123  O127      0.98380      .   S
    N8     O127      2.11453      .   S
    Zr128  O129      0.99426      .   S
    N47    O129      2.13741      .   S
    Zr128  O130      0.99279      .   S
    N3     O130      2.13298      .   S
    Zr128  O131      1.00267      .   S
    N29    O131      2.15760  1_556   S
    Zr128  O132      0.97403      .   S
    N8     O132      2.09098      .   S
    Zr133  O134      0.97403      .   S
    N23    O134      2.09098      .   S
    Zr133  O135      1.00267      .   S
    N13    O135      2.15759  1_556   S
    Zr133  O136      0.99426      .   S
    N30    O136      2.13741      .   S
    Zr133  O137      0.99277      .   S
    N28    O137      2.13290      .   S
    Zr138  O139      1.00040      .   S
    N16    O139      2.15367  1_554   S
    Zr138  O140      0.99799      .   S
    N39    O140      2.14581      .   S
    Zr138  O141      0.99170      .   S
    N12    O141      2.13317      .   S
    Zr138  O142      0.98477      .   S
    N14    O142      2.11429      .   S
    Zr143  O144      0.99798      .   S
    N26    O144      2.14580      .   S
    Zr143  O145      0.99174      .   S
    N20    O145      2.13323      .   S
    Zr143  O146      0.98479      .   S
    N3     O146      2.11432      .   S
    Zr143  O147      1.00037  1_655   S
    N15    O147      2.15363  1_556   S
    Zr148  O149      0.99249      .   S
    N42    O149      2.13231  1_455   S
    Zr148  O150      1.00254      .   S
    N1     O150      2.15732  1_455   S
    Zr148  O151      0.97437      .   S
    N27    O151      2.09187      .   S
    Zr148  O152      0.99514      .   S
    N41    O152      2.13961      .   S
    Zr153  O154      0.99553      .   S
    N36    O154      2.13994      .   S
    Zr153  O155      0.99108      .   S
    N22    O155      2.13166      .   S
    Zr153  O156      0.98569      .   S
    N32    O156      2.11643      .   S
    Zr153  O157      1.00237      .   S
    N6     O157      2.15819      .   S
    Zr158  O159      1.00254      .   S
    N40    O159      2.15727  1_655   S
    Zr158  O160      0.97438      .   S
    N0     O160      2.09188      .   S
    Zr158  O161      0.99514      .   S
    N31    O161      2.13959      .   S
    Zr158  O162      0.99249      .   S
    N7     O162      2.13230  1_655   S
    Zr163  O164      0.97439      .   S
    N34    O164      2.09186      .   S
    Zr163  O165      1.00258      .   S
    N9     O165      2.15739      .   S
    Zr163  O166      0.99514      .   S
    N5     O166      2.13959      .   S
    Zr163  O167      0.99251      .   S
    N21    O167      2.13233      .   S
    Zr168  O169      0.99175      .   S
    N21    O169      2.13324      .   S
    Zr168  O170      0.99798      .   S
    N30    O170      2.14580      .   S
    Zr168  O171      1.00037      .   S
    N44    O171      2.15360  1_556   S
    Zr168  O172      0.98481      .   S
    N33    O172      2.11435      .   S
    Zr173  O174      0.98379      .   S
    N25    O174      2.11452      .   S
    Zr173  O175      1.00587      .   S
    N1     O175      2.16558      .   S
    Zr173  O176      1.00425  1_455   S
    N2     O176      2.16123  1_545   S
    Zr173  O177      0.99482  1_455   S
    N26    O177      2.14163      .   S
    Zr178  O179      0.98476      .   S
    N19    O179      2.11428      .   S
    Zr178  O180      1.00039  1_455   S
    N26    O180      2.15365  1_554   S
    Zr178  O181      0.99799      .   S
    N15    O181      2.14583      .   S
    Zr178  O182      0.99169      .   S
    N42    O182      2.13316      .   S
    Zr183  O184      1.00437      .   S
    N35    O184      2.16536      .   S
    Zr183  O185      0.98379      .   S
    N46    O185      2.11452      .   S
    Zr183  O186      0.99485      .   S
    N16    O186      2.14168      .   S
    Zr183  O187      1.00428      .   S
    N33    O187      2.16128  1_545   S
    Zr188  O189      0.99498      .   S
    N18    O189      2.14199      .   S
    Zr188  O190      1.00451      .   S
    N17    O190      2.16176      .   S
    Zr188  O191      0.98353      .   S
    N34    O191      2.11402      .   S
    Zr188  O192      1.00588      .   S
    N8     O192      2.16557      .   S
    Zr193  O194      1.00230  1_545   S
    N41    O194      2.15812      .   S
    Zr193  O195      0.99112      .   S
    N2     O195      2.13172      .   S
    Zr193  O196      0.99552      .   S
    N5     O196      2.13992      .   S
    Zr193  O197      0.98568      .   S
    N7     O197      2.11642      .   S
    Zr198  O199      0.98353      .   S
    N35    O199      2.11401      .   S
    Zr198  O200      1.00588      .   S
    N46    O200      2.16556      .   S
    Zr198  O201      0.99500  1_565   S
    N5     O201      2.14203      .   S
    Zr198  O202      1.00460  1_565   S
    N21    O202      2.16192      .   S
    Zr203  O204      0.99110      .   S
    N19    O204      2.13168      .   S
    Zr203  O205      0.99553      .   S
    N37    O205      2.13994      .   S
    Zr203  O206      0.98570      .   S
    N42    O206      2.11644      .   S
    Zr203  O207      1.00240  1_565   S
    N31    O207      2.15824      .   S
    Zr208  O209      1.00587      .   S
    N13    O209      2.16554      .   S
    Zr208  O210      1.00450      .   S
    N11    O210      2.16173      .   S
    Zr208  O211      0.99502      .   S
    N36    O211      2.14213      .   S
    Zr208  O212      0.98347      .   S
    N10    O212      2.11377      .   S
    Zr213  O214      0.98346      .   S
    N40    O214      2.11376      .   S
    Zr213  O215      0.99503  1_545   S
    N41    O215      2.14215      .   S
    Zr213  O216      1.00587      .   S
    N24    O216      2.16553      .   S
    Zr213  O217      1.00457  1_545   S
    N42    O217      2.16185  1_455   S
    Zr218  O219      0.99502  1_545   S
    N37    O219      2.14215      .   S
    Zr218  O220      0.98348      .   S
    N9     O220      2.11377      .   S
    Zr218  O221      1.00587      .   S
    N4     O221      2.16553      .   S
    Zr218  O222      1.00459  1_545   S
    N12    O222      2.16188      .   S
    Zr223  O224      0.97438      .   S
    N9     O224      2.09187      .   S
    Zr223  O225      0.99252      .   S
    N11    O225      2.13234      .   S
    Zr223  O226      1.00293      .   S
    N34    O226      2.15844      .   S
    Zr223  O227      0.99514      .   S
    N36    O227      2.13961      .   S
    Zr228  O229      1.00594      .   S
    N27    O229      2.16571      .   S
    Zr228  O230      1.00421  1_655   S
    N22    O230      2.16111      .   S
    Zr228  O231      0.99483  1_655   S
    N15    O231      2.14162      .   S
    Zr228  O232      0.98378      .   S
    N29    O232      2.11449      .   S
    Zr233  O234      0.99500  1_565   S
    N31    O234      2.14203      .   S
    Zr233  O235      1.00588      .   S
    N25    O235      2.16556      .   S
    Zr233  O236      0.98348      .   S
    N1     O236      2.11376      .   S
    Zr233  O237      1.00459  1_565   S
    N7     O237      2.16189  1_655   S
    Zr238  O239      1.00425  1_655   S
    N19    O239      2.16121  1_565   S
    Zr238  O240      0.99483  1_655   S
    N38    O240      2.14162      .   S
    Zr238  O241      0.98378      .   S
    N24    O241      2.11448      .   S
    Zr238  O242      1.00594      .   S
    N40    O242      2.16571      .   S
    Zr243  O244      1.00293      .   S
    N35    O244      2.15844      .   S
    Zr243  O245      0.99514      .   S
    N37    O245      2.13961      .   S
    Zr243  O246      0.99252      .   S
    N12    O246      2.13235      .   S
    Zr243  O247      0.97438      .   S
    N10    O247      2.09187      .   S
    Zr248  O249      0.98476      .   S
    N22    O249      2.11425      .   S
    Zr248  O250      0.99799      .   S
    N38    O250      2.14582      .   S
    Zr248  O251      0.99169      .   S
    N32    O251      2.13316      .   S
    Zr248  O252      1.00039  1_455   S
    N47    O252      2.15365  1_554   S
    Zr253  O254      0.99108      .   S
    N45    O254      2.13166      .   S
    Zr253  O255      1.00237      .   S
    N18    O255      2.15819      .   S
    Zr253  O256      0.99553      .   S
    N43    O256      2.13994      .   S
    Zr253  O257      0.98570      .   S
    N11    O257      2.11646      .   S
    Zr258  O259      0.99553      .   S
    N41    O259      2.13994      .   S
    Zr258  O260      1.00240  1_565   S
    N5     O260      2.15824      .   S
    Zr258  O261      0.99110      .   S
    N14    O261      2.13167      .   S
    Zr258  O262      0.98571      .   S
    N12    O262      2.11647      .   S
    Zr263  O264      0.99502      .   S
    N43    O264      2.14213      .   S
    Zr263  O265      1.00449      .   S
    N32    O265      2.16170  1_455   S
    Zr263  O266      1.00587      .   S
    N29    O266      2.16555      .   S
    Zr263  O267      0.98346      .   S
    N27    O267      2.11375      .   S
    Zr268  O269      0.99252      .   S
    N17    O269      2.13233      .   S
    Zr268  O270      0.99513      .   S
    N18    O270      2.13958      .   S
    Zr268  O271      1.00258      .   S
    N10    O271      2.15739      .   S
    Zr268  O272      0.97439      .   S
    N35    O272      2.09186      .   S
    Zr273  O274      0.98476      .   S
    N45    O274      2.11425      .   S
    Zr273  O275      0.99799      .   S
    N44    O275      2.14582      .   S
    Zr273  O276      0.99170      .   S
    N11    O276      2.13317      .   S
    Zr273  O277      1.00040      .   S
    N30    O277      2.15367  1_554   S
    Zr278  O279      0.99282      .   S
    N19    O279      2.13301  1_565   S
    Zr278  O280      0.99425      .   S
    N38    O280      2.13737      .   S
    Zr278  O281      1.00268      .   S
    N25    O281      2.15764  1_564   S
    Zr278  O282      0.97404      .   S
    N4     O282      2.09100      .   S
    Zr283  O284      0.99281      .   S
    N22    O284      2.13300      .   S
    Zr283  O285      1.00267      .   S
    N23    O285      2.15759  1_554   S
    Zr283  O286      0.97403      .   S
    N13    O286      2.09098      .   S
    Zr283  O287      0.99425      .   S
    N15    O287      2.13737      .   S
