# CIF file generated by openbabel 2.4.90, see http://openbabel.sf.net
data_I
_chemical_name_common ''
_cell_length_a 19.848
_cell_length_b 19.84
_cell_length_c 15.506
_cell_angle_alpha 74.229
_cell_angle_beta 74.301
_cell_angle_gamma 82.636
_space_group_name_H-M_alt 'P 1'
_space_group_name_Hall 'P 1'
loop_
    _symmetry_equiv_pos_as_xyz
    x,y,z
loop_
    _atom_site_label
    _atom_site_type_symbol
    _atom_site_fract_x
    _atom_site_fract_y
    _atom_site_fract_z
    _atom_site_occupancy
    C0      C    0.46836   0.15899   0.12580   1.000
    C1      C    0.46836   0.65898   0.12580   1.000
    C2      C    0.96836   0.15899   0.12580   1.000
    C3      C    0.96836   0.65898   0.12580   1.000
    C4      C    0.01689   0.40155   0.16808   1.000
    C5      C    0.01689   0.90155   0.16808   1.000
    C6      C    0.51689   0.40155   0.16808   1.000
    C7      C    0.51690   0.90155   0.16808   1.000
    C8      C    0.05934   0.18216   0.41978   1.000
    C9      C    0.05934   0.68215   0.41978   1.000
    C10     C    0.55934   0.18216   0.41978   1.000
    C11     C    0.55935   0.68215   0.41978   1.000
    C12     C    0.34084   0.03168   0.37402   1.000
    C13     C    0.34084   0.53167   0.37402   1.000
    C14     C    0.84084   0.03168   0.37402   1.000
    C15     C    0.84084   0.53167   0.37402   1.000
    C16     C    0.09864   0.48317   0.33179   1.000
    C17     C    0.09864   0.98316   0.33179   1.000
    C18     C    0.59864   0.48317   0.33179   1.000
    C19     C    0.59864   0.98316   0.33179   1.000
    C20     C    0.31773   0.44055   0.08038   1.000
    C21     C    0.31773   0.94054   0.08038   1.000
    C22     C    0.81773   0.44055   0.08038   1.000
    C23     C    0.81774   0.94054   0.08038   1.000
    C24     C    0.03168   0.34102   0.87418   1.000
    C25     C    0.03168   0.84102   0.87418   1.000
    C26     C    0.53168   0.34102   0.87418   1.000
    C27     C    0.53168   0.84102   0.87418   1.000
    C28     C    0.48314   0.09845   0.83192   1.000
    C29     C    0.48314   0.59845   0.83192   1.000
    C30     C    0.98314   0.09845   0.83192   1.000
    C31     C    0.98314   0.59845   0.83192   1.000
    C32     C    0.44068   0.31786   0.58021   1.000
    C33     C    0.44068   0.81785   0.58021   1.000
    C34     C    0.94068   0.31786   0.58021   1.000
    C35     C    0.94069   0.81785   0.58021   1.000
    C36     C    0.15919   0.46834   0.62597   1.000
    C37     C    0.15919   0.96833   0.62597   1.000
    C38     C    0.65919   0.46834   0.62597   1.000
    C39     C    0.65919   0.96833   0.62597   1.000
    C40     C    0.40139   0.01685   0.66820   1.000
    C41     C    0.40139   0.51684   0.66820   1.000
    C42     C    0.90139   0.01685   0.66820   1.000
    C43     C    0.90140   0.51684   0.66820   1.000
    C44     C    0.18230   0.05946   0.91961   1.000
    C45     C    0.18230   0.55946   0.91961   1.000
    C46     C    0.68230   0.05946   0.91961   1.000
    C47     C    0.68230   0.55945   0.91961   1.000
    C48     C    0.15831   0.46846   0.12595   1.000
    C49     C    0.15831   0.96846   0.12595   1.000
    C50     C    0.65831   0.46846   0.12595   1.000
    C51     C    0.65831   0.96846   0.12595   1.000
    C52     C    0.43877   0.32267   0.07779   1.000
    C53     C    0.43878   0.82266   0.07779   1.000
    C54     C    0.93878   0.32267   0.07779   1.000
    C55     C    0.93878   0.82266   0.07779   1.000
    C56     C    0.47928   0.10508   0.33034   1.000
    C57     C    0.47929   0.60507   0.33034   1.000
    C58     C    0.97929   0.10508   0.33034   1.000
    C59     C    0.97929   0.60507   0.33034   1.000
    C60     C    0.03162   0.34179   0.37403   1.000
    C61     C    0.03162   0.84178   0.37403   1.000
    C62     C    0.53162   0.34179   0.37403   1.000
    C63     C    0.53163   0.84178   0.37403   1.000
    C64     C    0.17773   0.06138   0.42173   1.000
    C65     C    0.17774   0.56137   0.42173   1.000
    C66     C    0.67774   0.06138   0.42173   1.000
    C67     C    0.67774   0.56137   0.42173   1.000
    C68     C    0.39483   0.02068   0.16977   1.000
    C69     C    0.39483   0.52068   0.16977   1.000
    C70     C    0.89483   0.02068   0.16977   1.000
    C71     C    0.89484   0.52068   0.16977   1.000
    C72     C    0.34172   0.03155   0.87404   1.000
    C73     C    0.34173   0.53154   0.87404   1.000
    C74     C    0.84173   0.03155   0.87404   1.000
    C75     C    0.84173   0.53154   0.87404   1.000
    C76     C    0.06126   0.17734   0.92220   1.000
    C77     C    0.06126   0.67734   0.92220   1.000
    C78     C    0.56126   0.17734   0.92220   1.000
    C79     C    0.56127   0.67734   0.92220   1.000
    C80     C    0.02074   0.39494   0.66965   1.000
    C81     C    0.02074   0.89493   0.66965   1.000
    C82     C    0.52074   0.39494   0.66965   1.000
    C83     C    0.52075   0.89493   0.66965   1.000
    C84     C    0.46841   0.15823   0.62597   1.000
    C85     C    0.46841   0.65822   0.62597   1.000
    C86     C    0.96841   0.15823   0.62597   1.000
    C87     C    0.96841   0.65822   0.62597   1.000
    C88     C    0.32229   0.43864   0.57826   1.000
    C89     C    0.32229   0.93864   0.57826   1.000
    C90     C    0.82229   0.43864   0.57826   1.000
    C91     C    0.82230   0.93864   0.57826   1.000
    C92     C    0.10520   0.47933   0.83022   1.000
    C93     C    0.10520   0.97932   0.83022   1.000
    C94     C    0.60520   0.47933   0.83022   1.000
    C95     C    0.60520   0.97932   0.83022   1.000
    C96     C    0.10588   0.41912   0.12130   1.000
    C97     C    0.10588   0.91911   0.12130   1.000
    C98     C    0.60588   0.41912   0.12130   1.000
    C99     C    0.60589   0.91912   0.12130   1.000
    C100    C    0.22846   0.42561   0.13100   1.000
    C101    C    0.22846   0.92560   0.13100   1.000
    C102    C    0.72846   0.42561   0.13100   1.000
    C103    C    0.72847   0.92560   0.13100   1.000
    C104    C    0.12997   0.49894   0.21127   1.000
    C105    C    0.12997   0.99893   0.21127   1.000
    C106    C    0.62997   0.49894   0.21127   1.000
    C107    C    0.62998   0.99893   0.21127   1.000
    C108    C    0.42729   0.24370   0.11335   1.000
    C109    C    0.42729   0.74369   0.11335   1.000
    C110    C    0.92729   0.24370   0.11335   1.000
    C111    C    0.92729   0.74369   0.11335   1.000
    C112    C    0.00229   0.13384   0.22437   1.000
    C113    C    0.00229   0.63383   0.22437   1.000
    C114    C    0.50229   0.13384   0.22437   1.000
    C115    C    0.50230   0.63383   0.22437   1.000
    C116    C    0.49592   0.34005   0.11807   1.000
    C117    C    0.49592   0.84004   0.11807   1.000
    C118    C    0.99592   0.34005   0.11807   1.000
    C119    C    0.99593   0.84004   0.11807   1.000
    C120    C    0.46179   0.34360   0.97121   1.000
    C121    C    0.46179   0.84359   0.97121   1.000
    C122    C    0.96179   0.34360   0.97121   1.000
    C123    C    0.96180   0.84359   0.97121   1.000
    C124    C    0.49442   0.15816   0.37772   1.000
    C125    C    0.49442   0.65816   0.37772   1.000
    C126    C    0.99442   0.15817   0.37772   1.000
    C127    C    0.99443   0.65816   0.37772   1.000
    C128    C    0.16925   0.03095   0.04013   1.000
    C129    C    0.16925   0.53094   0.04013   1.000
    C130    C    0.66925   0.03095   0.04013   1.000
    C131    C    0.66925   0.53094   0.04013   1.000
    C132    C    0.36864   0.36265   0.10996   1.000
    C133    C    0.36865   0.86264   0.10996   1.000
    C134    C    0.86864   0.36265   0.10996   1.000
    C135    C    0.86865   0.86264   0.10996   1.000
    C136    C    0.01965   0.03380   0.35853   1.000
    C137    C    0.01965   0.53380   0.35853   1.000
    C138    C    0.51965   0.03380   0.35853   1.000
    C139    C    0.51966   0.53380   0.35853   1.000
    C140    C    0.39991   0.09459   0.36247   1.000
    C141    C    0.39991   0.59459   0.36247   1.000
    C142    C    0.89991   0.09459   0.36247   1.000
    C143    C    0.89991   0.59459   0.36247   1.000
    C144    C    0.08109   0.39410   0.37865   1.000
    C145    C    0.08109   0.89410   0.37865   1.000
    C146    C    0.58109   0.39410   0.37865   1.000
    C147    C    0.58109   0.89410   0.37865   1.000
    C148    C    0.07427   0.27150   0.36925   1.000
    C149    C    0.07427   0.77149   0.36925   1.000
    C150    C    0.57427   0.27150   0.36925   1.000
    C151    C    0.57427   0.77149   0.36925   1.000
    C152    C    0.00122   0.37021   0.28859   1.000
    C153    C    0.00123   0.87020   0.28859   1.000
    C154    C    0.50123   0.37021   0.28800   1.000
    C155    C    0.50123   0.87020   0.28800   1.000
    C156    C    0.25649   0.07345   0.38494   1.000
    C157    C    0.25649   0.57344   0.38494   1.000
    C158    C    0.75649   0.07345   0.38494   1.000
    C159    C    0.75649   0.57344   0.38494   1.000
    C160    C    0.36631   0.49742   0.27577   1.000
    C161    C    0.36631   0.99742   0.27577   1.000
    C162    C    0.86631   0.49742   0.27577   1.000
    C163    C    0.86631   0.99742   0.27577   1.000
    C164    C    0.16006   0.00405   0.38201   1.000
    C165    C    0.16006   0.50405   0.38201   1.000
    C166    C    0.66006   0.00405   0.38201   1.000
    C167    C    0.66007   0.50405   0.38201   1.000
    C168    C    0.15797   0.03819   0.52830   1.000
    C169    C    0.15797   0.53818   0.52830   1.000
    C170    C    0.65797   0.03819   0.52830   1.000
    C171    C    0.65798   0.53818   0.52830   1.000
    C172    C    0.34177   0.00551   0.12236   1.000
    C173    C    0.34177   0.50550   0.12236   1.000
    C174    C    0.84177   0.00551   0.12236   1.000
    C175    C    0.84178   0.50550   0.12236   1.000
    C176    C    0.46912   0.33103   0.45970   1.000
    C177    C    0.46913   0.83103   0.45970   1.000
    C178    C    0.96913   0.33103   0.45970   1.000
    C179    C    0.96913   0.83103   0.45970   1.000
    C180    C    0.13717   0.13133   0.39018   1.000
    C181    C    0.13717   0.63132   0.39018   1.000
    C182    C    0.63718   0.13133   0.39018   1.000
    C183    C    0.63718   0.63132   0.39018   1.000
    C184    C    0.46614   0.48052   0.14138   1.000
    C185    C    0.46614   0.98051   0.14138   1.000
    C186    C    0.96614   0.48052   0.14138   1.000
    C187    C    0.96615   0.98051   0.14138   1.000
    C188    C    0.40507   0.10017   0.13780   1.000
    C189    C    0.40507   0.60017   0.13780   1.000
    C190    C    0.90507   0.10017   0.13785   1.000
    C191    C    0.90507   0.60017   0.13785   1.000
    C192    C    0.39415   0.08089   0.87870   1.000
    C193    C    0.39415   0.58088   0.87870   1.000
    C194    C    0.89415   0.08089   0.87870   1.000
    C195    C    0.89415   0.58088   0.87870   1.000
    C196    C    0.27157   0.07440   0.86898   1.000
    C197    C    0.27157   0.57440   0.86898   1.000
    C198    C    0.77157   0.07440   0.86898   1.000
    C199    C    0.77158   0.57440   0.86898   1.000
    C200    C    0.37006   0.00107   0.78872   1.000
    C201    C    0.37007   0.50107   0.78872   1.000
    C202    C    0.87007   0.00108   0.78872   1.000
    C203    C    0.87007   0.50107   0.78872   1.000
    C204    C    0.07274   0.25631   0.88662   1.000
    C205    C    0.07274   0.75631   0.88662   1.000
    C206    C    0.57274   0.25631   0.88662   1.000
    C207    C    0.57275   0.75631   0.88662   1.000
    C208    C    0.49773   0.36618   0.77563   1.000
    C209    C    0.49773   0.86618   0.77563   1.000
    C210    C    0.99773   0.36618   0.77563   1.000
    C211    C    0.99773   0.86618   0.77563   1.000
    C212    C    0.00411   0.15995   0.88194   1.000
    C213    C    0.00411   0.65995   0.88194   1.000
    C214    C    0.50411   0.15995   0.88194   1.000
    C215    C    0.50412   0.65994   0.88194   1.000
    C216    C    0.03825   0.15643   0.02878   1.000
    C217    C    0.03825   0.65642   0.02878   1.000
    C218    C    0.53825   0.15643   0.02878   1.000
    C219    C    0.53826   0.65642   0.02878   1.000
    C220    C    0.00560   0.34184   0.62228   1.000
    C221    C    0.00560   0.84184   0.62228   1.000
    C222    C    0.50560   0.34184   0.62228   1.000
    C223    C    0.50561   0.84184   0.62228   1.000
    C224    C    0.33077   0.46906   0.95986   1.000
    C225    C    0.33078   0.96905   0.95986   1.000
    C226    C    0.83078   0.46906   0.95986   1.000
    C227    C    0.83078   0.96905   0.95986   1.000
    C228    C    0.13139   0.13737   0.89000   1.000
    C229    C    0.13140   0.63736   0.89000   1.000
    C230    C    0.63140   0.13737   0.89003   1.000
    C231    C    0.63140   0.63736   0.89003   1.000
    C232    C    0.48038   0.46621   0.64145   1.000
    C233    C    0.48038   0.96621   0.64145   1.000
    C234    C    0.98038   0.46621   0.64145   1.000
    C235    C    0.98038   0.96621   0.64145   1.000
    C236    C    0.10012   0.40542   0.63752   1.000
    C237    C    0.10012   0.90541   0.63752   1.000
    C238    C    0.60012   0.40542   0.63752   1.000
    C239    C    0.60012   0.90541   0.63752   1.000
    C240    C    0.41894   0.10591   0.62135   1.000
    C241    C    0.41894   0.60591   0.62135   1.000
    C242    C    0.91894   0.10591   0.62130   1.000
    C243    C    0.91895   0.60591   0.62130   1.000
    C244    C    0.42576   0.22852   0.63075   1.000
    C245    C    0.42576   0.72851   0.63075   1.000
    C246    C    0.92576   0.22852   0.63075   1.000
    C247    C    0.92576   0.72851   0.63075   1.000
    C248    C    0.49880   0.12981   0.71140   1.000
    C249    C    0.49881   0.62980   0.71140   1.000
    C250    C    0.99880   0.12981   0.71140   1.000
    C251    C    0.99881   0.62980   0.71140   1.000
    C252    C    0.24354   0.42657   0.61500   1.000
    C253    C    0.24354   0.92657   0.61500   1.000
    C254    C    0.74354   0.42657   0.61500   1.000
    C255    C    0.74354   0.92657   0.61500   1.000
    C256    C    0.13372   0.00260   0.72422   1.000
    C257    C    0.13372   0.50259   0.72422   1.000
    C258    C    0.63372   0.00260   0.72422   1.000
    C259    C    0.63372   0.50259   0.72422   1.000
    C260    C    0.33997   0.49597   0.61798   1.000
    C261    C    0.33997   0.99596   0.61798   1.000
    C262    C    0.83997   0.49597   0.61798   1.000
    C263    C    0.83997   0.99596   0.61798   1.000
    C264    C    0.34205   0.46183   0.47166   1.000
    C265    C    0.34205   0.96182   0.47166   1.000
    C266    C    0.84205   0.46183   0.47166   1.000
    C267    C    0.84206   0.96182   0.47166   1.000
    C268    C    0.15825   0.49450   0.87764   1.000
    C269    C    0.15826   0.99449   0.87764   1.000
    C270    C    0.65825   0.49450   0.87764   1.000
    C271    C    0.65826   0.99449   0.87764   1.000
    C272    C    0.03090   0.16898   0.54030   1.000
    C273    C    0.03090   0.66898   0.54030   1.000
    C274    C    0.53090   0.16898   0.54030   1.000
    C275    C    0.53091   0.66898   0.54030   1.000
    C276    C    0.36285   0.36869   0.60981   1.000
    C277    C    0.36286   0.86869   0.60981   1.000
    C278    C    0.86286   0.36869   0.60981   1.000
    C279    C    0.86286   0.86869   0.60981   1.000
    C280    C    0.03388   0.01948   0.85861   1.000
    C281    C    0.03388   0.51948   0.85861   1.000
    C282    C    0.53388   0.01948   0.85861   1.000
    C283    C    0.53389   0.51948   0.85861   1.000
    C284    C    0.09497   0.39983   0.86213   1.000
    C285    C    0.09498   0.89983   0.86213   1.000
    C286    C    0.59498   0.39983   0.86213   1.000
    C287    C    0.59498   0.89983   0.86213   1.000
    O288    O    0.50331   0.65770   0.07729   1.000
    O289    O    0.54976   0.66688   0.97549   1.000
    O290    O    0.50330   0.15771   0.07729   1.000
    O291    O    0.54976   0.16688   0.97549   1.000
    O292    O    0.00331   0.65770   0.07729   1.000
    O293    O    0.04976   0.66688   0.97549   1.000
    O294    O    0.00330   0.15771   0.07729   1.000
    O295    O    0.04975   0.16688   0.97549   1.000
    O296    O    0.66378   0.49970   0.08304   1.000
    O297    O    0.67578   0.54520   0.97987   1.000
    O298    O    0.66378   0.99970   0.08304   1.000
    O299    O    0.67577   0.04520   0.97987   1.000
    O300    O    0.16378   0.49970   0.08304   1.000
    O301    O    0.17578   0.54520   0.97987   1.000
    O302    O    0.16378   0.99970   0.08304   1.000
    O303    O    0.17577   0.04520   0.97987   1.000
    O304    O    0.40371   0.84265   0.09388   1.000
    O305    O    0.43303   0.78318   0.09557   1.000
    O306    O    0.46735   0.83135   0.09793   1.000
    O307    O    0.45029   0.83313   0.02450   1.000
    O308    O    0.90371   0.84265   0.09388   1.000
    O309    O    0.93304   0.78318   0.09557   1.000
    O310    O    0.96735   0.83135   0.09793   1.000
    O311    O    0.95029   0.83313   0.02450   1.000
    O312    O    0.90371   0.34266   0.09388   1.000
    O313    O    0.93303   0.28318   0.09557   1.000
    O314    O    0.96735   0.33136   0.09793   1.000
    O315    O    0.95029   0.33313   0.02450   1.000
    O316    O    0.40371   0.34266   0.09388   1.000
    O317    O    0.43303   0.28318   0.09557   1.000
    O318    O    0.46735   0.33136   0.09793   1.000
    O319    O    0.45028   0.33313   0.02450   1.000
    O320    O    0.34319   0.40160   0.09517   1.000
    O321    O    0.32975   0.47303   0.10137   1.000
    O322    O    0.27309   0.43308   0.10569   1.000
    O323    O    0.32425   0.45480   0.02012   1.000
    O324    O    0.34319   0.90159   0.09517   1.000
    O325    O    0.32975   0.97303   0.10137   1.000
    O326    O    0.27310   0.93307   0.10569   1.000
    O327    O    0.32426   0.95480   0.02012   1.000
    O328    O    0.84319   0.40160   0.09517   1.000
    O329    O    0.82975   0.47303   0.10137   1.000
    O330    O    0.77310   0.43308   0.10569   1.000
    O331    O    0.82426   0.45480   0.02012   1.000
    O332    O    0.84319   0.90159   0.09517   1.000
    O333    O    0.82975   0.97303   0.10137   1.000
    O334    O    0.77310   0.93307   0.10569   1.000
    O335    O    0.82426   0.95480   0.02012   1.000
    O336    O    0.44782   0.70134   0.11958   1.000
    O337    O    0.44782   0.20134   0.11958   1.000
    O338    O    0.94782   0.20134   0.11958   1.000
    O339    O    0.94783   0.70134   0.11958   1.000
    O340    O    0.50640   0.37080   0.14307   1.000
    O341    O    0.50641   0.87079   0.14307   1.000
    O342    O    0.00641   0.37080   0.14307   1.000
    O343    O    0.00641   0.87079   0.14307   1.000
    O344    O    0.13209   0.44379   0.12363   1.000
    O345    O    0.06138   0.41034   0.14469   1.000
    O346    O    0.13210   0.94378   0.12363   1.000
    O347    O    0.06139   0.91033   0.14469   1.000
    O348    O    0.63210   0.44379   0.12363   1.000
    O349    O    0.56139   0.41034   0.14469   1.000
    O350    O    0.63210   0.94379   0.12363   1.000
    O351    O    0.56139   0.91033   0.14469   1.000
    O352    O    0.86831   0.51309   0.14607   1.000
    O353    O    0.36830   0.01310   0.14607   1.000
    O354    O    0.86830   0.01310   0.14607   1.000
    O355    O    0.36830   0.51309   0.14607   1.000
    O356    O    0.43671   0.62958   0.13180   1.000
    O357    O    0.48533   0.64641   0.17509   1.000
    O358    O    0.93671   0.12958   0.13182   1.000
    O359    O    0.98532   0.14641   0.17509   1.000
    O360    O    0.93672   0.62958   0.13182   1.000
    O361    O    0.98533   0.64641   0.17509   1.000
    O362    O    0.43671   0.12958   0.13180   1.000
    O363    O    0.48532   0.14641   0.17509   1.000
    O364    O    0.69339   0.94703   0.12848   1.000
    O365    O    0.64414   0.98369   0.16861   1.000
    O366    O    0.19338   0.44703   0.12848   1.000
    O367    O    0.14414   0.48370   0.16861   1.000
    O368    O    0.19339   0.94703   0.12848   1.000
    O369    O    0.14414   0.98369   0.16861   1.000
    O370    O    0.69339   0.44703   0.12848   1.000
    O371    O    0.64414   0.48370   0.16861   1.000
    O372    O    0.39995   0.06043   0.15379   1.000
    O373    O    0.39995   0.56042   0.15379   1.000
    O374    O    0.89995   0.56042   0.15381   1.000
    O375    O    0.89995   0.06043   0.15381   1.000
    O376    O    0.99152   0.94103   0.15473   1.000
    O377    O    0.93049   0.00060   0.15558   1.000
    O378    O    0.99152   0.44104   0.15473   1.000
    O379    O    0.93049   0.50060   0.15558   1.000
    O380    O    0.49152   0.94103   0.15473   1.000
    O381    O    0.43049   0.00060   0.15558   1.000
    O382    O    0.49152   0.44104   0.15473   1.000
    O383    O    0.43049   0.50060   0.15558   1.000
    O384    O    0.50906   0.88587   0.22804   1.000
    O385    O    0.50906   0.38588   0.22804   1.000
    O386    O    0.00906   0.88587   0.22834   1.000
    O387    O    0.00906   0.38588   0.22834   1.000
    O388    O    0.38057   0.00905   0.22277   1.000
    O389    O    0.38057   0.50905   0.22277   1.000
    O390    O    0.88057   0.00905   0.22277   1.000
    O391    O    0.88057   0.50905   0.22277   1.000
    O392    O    0.11430   0.49105   0.27153   1.000
    O393    O    0.11431   0.99105   0.27153   1.000
    O394    O    0.61431   0.49105   0.27153   1.000
    O395    O    0.61431   0.99105   0.27153   1.000
    O396    O    0.99079   0.11946   0.27735   1.000
    O397    O    0.99079   0.61945   0.27735   1.000
    O398    O    0.49079   0.11946   0.27735   1.000
    O399    O    0.49079   0.61945   0.27735   1.000
    O400    O    0.35357   0.51455   0.32489   1.000
    O401    O    0.85358   0.01455   0.32489   1.000
    O402    O    0.85358   0.51455   0.32489   1.000
    O403    O    0.35357   0.01455   0.32489   1.000
    O404    O    0.51642   0.35600   0.33101   1.000
    O405    O    0.51643   0.85599   0.33101   1.000
    O406    O    0.01642   0.35600   0.33131   1.000
    O407    O    0.01642   0.85599   0.33131   1.000
    O408    O    0.99947   0.06944   0.34443   1.000
    O409    O    0.93960   0.09983   0.34640   1.000
    O410    O    0.98686   0.13162   0.35403   1.000
    O411    O    0.49947   0.56943   0.34443   1.000
    O412    O    0.43960   0.59983   0.34640   1.000
    O413    O    0.48686   0.63162   0.35403   1.000
    O414    O    0.49947   0.06944   0.34443   1.000
    O415    O    0.43959   0.09983   0.34640   1.000
    O416    O    0.48685   0.13162   0.35403   1.000
    O417    O    0.99947   0.56943   0.34443   1.000
    O418    O    0.93960   0.59983   0.34640   1.000
    O419    O    0.98686   0.63162   0.35403   1.000
    O420    O    0.55915   0.00848   0.34516   1.000
    O421    O    0.58987   0.93863   0.35522   1.000
    O422    O    0.62935   0.99361   0.35690   1.000
    O423    O    0.55915   0.50848   0.34516   1.000
    O424    O    0.58986   0.43863   0.35522   1.000
    O425    O    0.62935   0.49361   0.35690   1.000
    O426    O    0.05915   0.00848   0.34516   1.000
    O427    O    0.08987   0.93863   0.35522   1.000
    O428    O    0.12935   0.99361   0.35690   1.000
    O429    O    0.05915   0.50848   0.34516   1.000
    O430    O    0.08986   0.43863   0.35522   1.000
    O431    O    0.12935   0.49361   0.35690   1.000
    O432    O    0.87037   0.06313   0.36825   1.000
    O433    O    0.87038   0.56313   0.36825   1.000
    O434    O    0.37037   0.56313   0.36825   1.000
    O435    O    0.37037   0.06313   0.36825   1.000
    O436    O    0.05294   0.30664   0.37164   1.000
    O437    O    0.06680   0.22683   0.39452   1.000
    O438    O    0.05295   0.80664   0.37164   1.000
    O439    O    0.06681   0.72682   0.39452   1.000
    O440    O    0.55295   0.30664   0.37164   1.000
    O441    O    0.56681   0.22683   0.39452   1.000
    O442    O    0.55295   0.80664   0.37164   1.000
    O443    O    0.56681   0.72682   0.39452   1.000
    O444    O    0.29866   0.05256   0.37948   1.000
    O445    O    0.34145   0.99675   0.42284   1.000
    O446    O    0.29866   0.55256   0.37948   1.000
    O447    O    0.34145   0.49675   0.42284   1.000
    O448    O    0.79867   0.05256   0.37948   1.000
    O449    O    0.84145   0.99675   0.42284   1.000
    O450    O    0.79867   0.55256   0.37948   1.000
    O451    O    0.84145   0.49675   0.42284   1.000
    O452    O    0.05635   0.36794   0.37634   1.000
    O453    O    0.00037   0.33641   0.41686   1.000
    O454    O    0.05636   0.86794   0.37634   1.000
    O455    O    0.00038   0.83640   0.41686   1.000
    O456    O    0.55635   0.36794   0.37634   1.000
    O457    O    0.50037   0.33641   0.41686   1.000
    O458    O    0.55636   0.86794   0.37634   1.000
    O459    O    0.50038   0.83640   0.41686   1.000
    O460    O    0.52689   0.67016   0.39875   1.000
    O461    O    0.02689   0.67016   0.39875   1.000
    O462    O    0.02688   0.17016   0.39875   1.000
    O463    O    0.52688   0.17016   0.39875   1.000
    O464    O    0.16890   0.03272   0.40187   1.000
    O465    O    0.16890   0.53271   0.40187   1.000
    O466    O    0.66890   0.03272   0.40187   1.000
    O467    O    0.66890   0.53271   0.40187   1.000
    O468    O    0.71712   0.56741   0.40334   1.000
    O469    O    0.71711   0.06741   0.40334   1.000
    O470    O    0.21711   0.56741   0.40334   1.000
    O471    O    0.21711   0.06741   0.40334   1.000
    O472    O    0.09826   0.15674   0.40498   1.000
    O473    O    0.15745   0.09635   0.40596   1.000
    O474    O    0.09826   0.65674   0.40498   1.000
    O475    O    0.15746   0.59635   0.40596   1.000
    O476    O    0.59826   0.15674   0.40498   1.000
    O477    O    0.65746   0.09635   0.40596   1.000
    O478    O    0.59826   0.65674   0.40498   1.000
    O479    O    0.65746   0.59635   0.40596   1.000
    O480    O    0.04512   0.17557   0.48004   1.000
    O481    O    0.04512   0.67557   0.48004   1.000
    O482    O    0.54513   0.67557   0.48004   1.000
    O483    O    0.54512   0.17557   0.48004   1.000
    O484    O    0.16785   0.04978   0.47502   1.000
    O485    O    0.16785   0.54978   0.47502   1.000
    O486    O    0.66785   0.04978   0.47502   1.000
    O487    O    0.66786   0.54978   0.47502   1.000
    O488    O    0.95491   0.82444   0.51995   1.000
    O489    O    0.45490   0.32444   0.51995   1.000
    O490    O    0.45491   0.82444   0.51995   1.000
    O491    O    0.95490   0.32444   0.51995   1.000
    O492    O    0.83218   0.95023   0.52496   1.000
    O493    O    0.83217   0.45024   0.52496   1.000
    O494    O    0.33217   0.95023   0.52496   1.000
    O495    O    0.33217   0.45024   0.52496   1.000
    O496    O    0.15858   0.50326   0.57713   1.000
    O497    O    0.65858   0.00326   0.57713   1.000
    O498    O    0.65858   0.50326   0.57713   1.000
    O499    O    0.15858   0.00326   0.57713   1.000
    O500    O    0.99966   0.66360   0.58313   1.000
    O501    O    0.49965   0.16361   0.58313   1.000
    O502    O    0.49966   0.66360   0.58313   1.000
    O503    O    0.99965   0.16361   0.58313   1.000
    O504    O    0.34257   0.90366   0.59403   1.000
    O505    O    0.28292   0.93260   0.59663   1.000
    O506    O    0.33113   0.96730   0.59812   1.000
    O507    O    0.84258   0.90366   0.59403   1.000
    O508    O    0.78292   0.93260   0.59663   1.000
    O509    O    0.83114   0.96730   0.59812   1.000
    O510    O    0.84257   0.40367   0.59403   1.000
    O511    O    0.78292   0.43261   0.59663   1.000
    O512    O    0.83113   0.46731   0.59812   1.000
    O513    O    0.34257   0.40367   0.59403   1.000
    O514    O    0.28291   0.43261   0.59663   1.000
    O515    O    0.33113   0.46731   0.59812   1.000
    O516    O    0.90177   0.84327   0.59501   1.000
    O517    O    0.97315   0.82984   0.60125   1.000
    O518    O    0.93322   0.77318   0.60548   1.000
    O519    O    0.90177   0.34327   0.59501   1.000
    O520    O    0.97314   0.32985   0.60125   1.000
    O521    O    0.93322   0.27319   0.60548   1.000
    O522    O    0.40177   0.84327   0.59501   1.000
    O523    O    0.47315   0.82984   0.60125   1.000
    O524    O    0.43322   0.77318   0.60548   1.000
    O525    O    0.40177   0.34327   0.59501   1.000
    O526    O    0.47314   0.32985   0.60125   1.000
    O527    O    0.43322   0.27319   0.60548   1.000
    O528    O    0.20136   0.44746   0.62048   1.000
    O529    O    0.70137   0.94745   0.62048   1.000
    O530    O    0.70136   0.44746   0.62048   1.000
    O531    O    0.20136   0.94745   0.62048   1.000
    O532    O    0.37068   0.50641   0.64309   1.000
    O533    O    0.37068   0.00641   0.64309   1.000
    O534    O    0.87068   0.50641   0.64309   1.000
    O535    O    0.87068   0.00641   0.64309   1.000
    O536    O    0.94367   0.13207   0.62363   1.000
    O537    O    0.91017   0.06138   0.64475   1.000
    O538    O    0.94368   0.63207   0.62363   1.000
    O539    O    0.91017   0.56138   0.64475   1.000
    O540    O    0.44367   0.13207   0.62366   1.000
    O541    O    0.41016   0.06138   0.64477   1.000
    O542    O    0.44367   0.63207   0.62366   1.000
    O543    O    0.41017   0.56138   0.64477   1.000
    O544    O    0.51317   0.36839   0.64597   1.000
    O545    O    0.01317   0.86838   0.64597   1.000
    O546    O    0.01317   0.36839   0.64597   1.000
    O547    O    0.51318   0.86839   0.64597   1.000
    O548    O    0.62965   0.43688   0.63175   1.000
    O549    O    0.64646   0.48546   0.67509   1.000
    O550    O    0.94709   0.69337   0.62836   1.000
    O551    O    0.98361   0.64401   0.66868   1.000
    O552    O    0.94708   0.19337   0.62836   1.000
    O553    O    0.98361   0.14402   0.66868   1.000
    O554    O    0.44708   0.69337   0.62836   1.000
    O555    O    0.48361   0.64401   0.66868   1.000
    O556    O    0.44708   0.19337   0.62836   1.000
    O557    O    0.48360   0.14402   0.66868   1.000
    O558    O    0.62966   0.93687   0.63175   1.000
    O559    O    0.64646   0.98546   0.67509   1.000
    O560    O    0.12965   0.43688   0.63175   1.000
    O561    O    0.14645   0.48546   0.67509   1.000
    O562    O    0.12966   0.93687   0.63175   1.000
    O563    O    0.14645   0.98546   0.67509   1.000
    O564    O    0.06043   0.40018   0.65358   1.000
    O565    O    0.06043   0.90017   0.65358   1.000
    O566    O    0.56043   0.40018   0.65358   1.000
    O567    O    0.56043   0.90017   0.65358   1.000
    O568    O    0.44089   0.49153   0.65482   1.000
    O569    O    0.50056   0.43058   0.65555   1.000
    O570    O    0.94089   0.99153   0.65482   1.000
    O571    O    0.00056   0.93057   0.65555   1.000
    O572    O    0.94089   0.49153   0.65482   1.000
    O573    O    0.00056   0.43057   0.65555   1.000
    O574    O    0.44088   0.99153   0.65482   1.000
    O575    O    0.50056   0.93057   0.65555   1.000
    O576    O    0.88573   0.50896   0.72846   1.000
    O577    O    0.88573   0.00896   0.72846   1.000
    O578    O    0.38573   0.50896   0.72846   1.000
    O579    O    0.38573   0.00896   0.72846   1.000
    O580    O    0.00924   0.88055   0.72264   1.000
    O581    O    0.50923   0.38056   0.72264   1.000
    O582    O    0.50924   0.88056   0.72264   1.000
    O583    O    0.00923   0.38056   0.72264   1.000
    O584    O    0.49097   0.61413   0.77166   1.000
    O585    O    0.99098   0.61413   0.77166   1.000
    O586    O    0.99097   0.11413   0.77166   1.000
    O587    O    0.49097   0.11413   0.77166   1.000
    O588    O    0.61946   0.49096   0.77722   1.000
    O589    O    0.61946   0.99096   0.77722   1.000
    O590    O    0.11946   0.49096   0.77722   1.000
    O591    O    0.11946   0.99096   0.77722   1.000
    O592    O    0.51471   0.85360   0.82491   1.000
    O593    O    0.01470   0.35360   0.82491   1.000
    O594    O    0.01471   0.85360   0.82491   1.000
    O595    O    0.51470   0.35360   0.82491   1.000
    O596    O    0.85590   0.51631   0.83138   1.000
    O597    O    0.85590   0.01631   0.83138   1.000
    O598    O    0.35590   0.51631   0.83138   1.000
    O599    O    0.35589   0.01631   0.83138   1.000
    O600    O    0.56954   0.49940   0.84441   1.000
    O601    O    0.60009   0.43958   0.84618   1.000
    O602    O    0.63173   0.48691   0.85393   1.000
    O603    O    0.56954   0.99940   0.84441   1.000
    O604    O    0.60009   0.93957   0.84618   1.000
    O605    O    0.63173   0.98691   0.85393   1.000
    O606    O    0.06954   0.99940   0.84441   1.000
    O607    O    0.10009   0.93957   0.84618   1.000
    O608    O    0.13173   0.98691   0.85393   1.000
    O609    O    0.06954   0.49940   0.84441   1.000
    O610    O    0.10009   0.43958   0.84618   1.000
    O611    O    0.13172   0.48691   0.85393   1.000
    O612    O    0.00851   0.55896   0.84527   1.000
    O613    O    0.93865   0.58967   0.85531   1.000
    O614    O    0.99363   0.62920   0.85693   1.000
    O615    O    0.00851   0.05897   0.84527   1.000
    O616    O    0.93864   0.08967   0.85531   1.000
    O617    O    0.99362   0.12920   0.85693   1.000
    O618    O    0.50851   0.55896   0.84527   1.000
    O619    O    0.43864   0.58966   0.85531   1.000
    O620    O    0.49363   0.62920   0.85693   1.000
    O621    O    0.50851   0.05897   0.84527   1.000
    O622    O    0.43864   0.08967   0.85531   1.000
    O623    O    0.49363   0.12920   0.85693   1.000
    O624    O    0.56333   0.87042   0.86816   1.000
    O625    O    0.56333   0.37043   0.86816   1.000
    O626    O    0.06333   0.87042   0.86816   1.000
    O627    O    0.06332   0.37043   0.86816   1.000
    O628    O    0.80665   0.55297   0.87151   1.000
    O629    O    0.72694   0.56693   0.89429   1.000
    O630    O    0.80665   0.05298   0.87151   1.000
    O631    O    0.72694   0.06693   0.89429   1.000
    O632    O    0.30665   0.55297   0.87151   1.000
    O633    O    0.22694   0.56693   0.89429   1.000
    O634    O    0.30665   0.05298   0.87151   1.000
    O635    O    0.22693   0.06693   0.89429   1.000
    O636    O    0.86794   0.55621   0.87637   1.000
    O637    O    0.83625   0.50030   0.91695   1.000
    O638    O    0.86794   0.05622   0.87637   1.000
    O639    O    0.83625   0.00030   0.91695   1.000
    O640    O    0.36794   0.55621   0.87637   1.000
    O641    O    0.33625   0.50030   0.91695   1.000
    O642    O    0.36793   0.05622   0.87637   1.000
    O643    O    0.33625   0.00030   0.91695   1.000
    O644    O    0.05221   0.29867   0.88040   1.000
    O645    O    0.99673   0.34231   0.92269   1.000
    O646    O    0.05221   0.79866   0.88040   1.000
    O647    O    0.99674   0.84230   0.92269   1.000
    O648    O    0.55221   0.29867   0.88040   1.000
    O649    O    0.49673   0.34231   0.92269   1.000
    O650    O    0.55221   0.79866   0.88040   1.000
    O651    O    0.49674   0.84230   0.92269   1.000
    O652    O    0.17028   0.52698   0.89862   1.000
    O653    O    0.67028   0.02698   0.89862   1.000
    O654    O    0.67028   0.52698   0.89862   1.000
    O655    O    0.17028   0.02698   0.89862   1.000
    O656    O    0.03269   0.66864   0.90207   1.000
    O657    O    0.53269   0.16865   0.90207   1.000
    O658    O    0.53269   0.66864   0.90207   1.000
    O659    O    0.03268   0.16865   0.90207   1.000
    O660    O    0.06700   0.21683   0.90441   1.000
    O661    O    0.06700   0.71682   0.90441   1.000
    O662    O    0.56700   0.21683   0.90441   1.000
    O663    O    0.56701   0.71682   0.90441   1.000
    O664    O    0.15685   0.59841   0.90480   1.000
    O665    O    0.09633   0.65735   0.90610   1.000
    O666    O    0.15685   0.09841   0.90480   1.000
    O667    O    0.09633   0.15735   0.90610   1.000
    O668    O    0.65685   0.09841   0.90482   1.000
    O669    O    0.59633   0.15735   0.90612   1.000
    O670    O    0.65685   0.59841   0.90482   1.000
    O671    O    0.59633   0.65735   0.90612   1.000
loop_
    _geom_bond_atom_site_label_1
    _geom_bond_atom_site_label_2
    _geom_bond_distance
    _geom_bond_site_symmetry_2
    _ccdc_geom_bond_type
    C219   O288      0.87814      .   S
    C1     O288      0.87814      .   S
    C219   O289      0.77125  1_554   S
    C79    O289      0.77125      .   S
    C218   O290      0.87814      .   S
    C0     O290      0.87814      .   S
    C218   O291      0.77125  1_554   S
    C78    O291      0.77125      .   S
    C217   O292      0.87811      .   S
    C3     O292      0.87811  1_655   S
    C217   O293      0.77125  1_554   S
    C77    O293      0.77125      .   S
    C216   O294      0.87811      .   S
    C2     O294      0.87811  1_655   S
    C216   O295      0.77125  1_554   S
    C76    O295      0.77125      .   S
    C131   O296      0.76985      .   S
    C50    O296      0.76985      .   S
    C131   O297      0.87755  1_554   S
    C47    O297      0.87755      .   S
    C130   O298      0.76990  1_545   S
    C51    O298      0.76990      .   S
    C130   O299      0.87755  1_554   S
    C46    O299      0.87755      .   S
    C129   O300      0.76985      .   S
    C48    O300      0.76985      .   S
    C129   O301      0.87755  1_554   S
    C45    O301      0.87755      .   S
    C128   O302      0.76990  1_545   S
    C49    O302      0.76990      .   S
    C128   O303      0.87755  1_554   S
    C44    O303      0.87755      .   S
    C53    O304      0.77005      .   S
    C133   O304      0.77005      .   S
    C53    O305      0.76889      .   S
    C109   O305      0.76889      .   S
    C53    O306      0.77397      .   S
    C117   O306      0.77397      .   S
    C53    O307      0.77125      .   S
    C121   O307      0.77125  1_556   S
    C55    O308      0.77005      .   S
    C135   O308      0.77005      .   S
    C55    O309      0.76889      .   S
    C111   O309      0.76889      .   S
    C55    O310      0.77397      .   S
    C119   O310      0.77397      .   S
    C55    O311      0.77125      .   S
    C123   O311      0.77125  1_556   S
    C54    O312      0.77006      .   S
    C134   O312      0.77006      .   S
    C54    O313      0.76889      .   S
    C110   O313      0.76889      .   S
    C54    O314      0.77396      .   S
    C118   O314      0.77396      .   S
    C54    O315      0.77125      .   S
    C122   O315      0.77125  1_556   S
    C52    O316      0.77005      .   S
    C132   O316      0.77005      .   S
    C52    O317      0.76889      .   S
    C108   O317      0.76889      .   S
    C52    O318      0.77396      .   S
    C116   O318      0.77396      .   S
    C52    O319      0.77125      .   S
    C120   O319      0.77125  1_556   S
    C20    O320      0.87827      .   S
    C132   O320      0.87827      .   S
    C20    O321      0.87949      .   S
    C173   O321      0.87949      .   S
    C20    O322      0.88020      .   S
    C100   O322      0.88020      .   S
    C20    O323      0.87756      .   S
    C224   O323      0.87756  1_556   S
    C21    O324      0.87826      .   S
    C133   O324      0.87826      .   S
    C21    O325      0.87955      .   S
    C172   O325      0.87955  1_545   S
    C21    O326      0.88020      .   S
    C101   O326      0.88020      .   S
    C21    O327      0.87756      .   S
    C225   O327      0.87756  1_556   S
    C22    O328      0.87826      .   S
    C134   O328      0.87826      .   S
    C22    O329      0.87949      .   S
    C175   O329      0.87949      .   S
    C22    O330      0.88020      .   S
    C102   O330      0.88020      .   S
    C22    O331      0.87756      .   S
    C226   O331      0.87756  1_556   S
    C23    O332      0.87826      .   S
    C135   O332      0.87826      .   S
    C23    O333      0.87954      .   S
    C174   O333      0.87954  1_545   S
    C23    O334      0.88020      .   S
    C103   O334      0.88020      .   S
    C23    O335      0.87756      .   S
    C227   O335      0.87756  1_556   S
    C109   O336      0.87803      .   S
    C1     O336      0.87803      .   S
    C108   O337      0.87803      .   S
    C0     O337      0.87803      .   S
    C110   O338      0.87803      .   S
    C2     O338      0.87803      .   S
    C111   O339      0.87803      .   S
    C3     O339      0.87803      .   S
    C116   O340      0.87790      .   S
    C6     O340      0.87790      .   S
    C117   O341      0.87790      .   S
    C7     O341      0.87790      .   S
    C118   O342      0.87789  1_655   S
    C4     O342      0.87789      .   S
    C119   O343      0.87788  1_655   S
    C5     O343      0.87788      .   S
    C96    O344      0.77237      .   S
    C48    O344      0.77237      .   S
    C96    O345      0.87956      .   S
    C4     O345      0.87956      .   S
    C97    O346      0.77236      .   S
    C49    O346      0.77236      .   S
    C97    O347      0.87956      .   S
    C5     O347      0.87956      .   S
    C98    O348      0.77237      .   S
    C50    O348      0.77237      .   S
    C98    O349      0.87957      .   S
    C6     O349      0.87957      .   S
    C99    O350      0.77237      .   S
    C51    O350      0.77237      .   S
    C99    O351      0.87956      .   S
    C7     O351      0.87956      .   S
    C175   O352      0.76823      .   S
    C71    O352      0.76823      .   S
    C172   O353      0.76823      .   S
    C68    O353      0.76823      .   S
    C174   O354      0.76823      .   S
    C70    O354      0.76823      .   S
    C173   O355      0.76823      .   S
    C69    O355      0.76823      .   S
    C1     O356      0.88113      .   S
    C189   O356      0.88113      .   S
    C1     O357      0.87966      .   S
    C115   O357      0.87966      .   S
    C2     O358      0.88102      .   S
    C190   O358      0.88102      .   S
    C2     O359      0.87963      .   S
    C112   O359      0.87963  1_455   S
    C3     O360      0.88102      .   S
    C191   O360      0.88102      .   S
    C3     O361      0.87963      .   S
    C113   O361      0.87963  1_455   S
    C0     O362      0.88112      .   S
    C188   O362      0.88112      .   S
    C0     O363      0.87966      .   S
    C114   O363      0.87966      .   S
    C51    O364      0.77252      .   S
    C103   O364      0.77252      .   S
    C51    O365      0.77092      .   S
    C107   O365      0.77092      .   S
    C48    O366      0.77252      .   S
    C100   O366      0.77252      .   S
    C48    O367      0.77091      .   S
    C104   O367      0.77091      .   S
    C49    O368      0.77253      .   S
    C101   O368      0.77253      .   S
    C49    O369      0.77091      .   S
    C105   O369      0.77091      .   S
    C50    O370      0.77252      .   S
    C102   O370      0.77252      .   S
    C50    O371      0.77092      .   S
    C106   O371      0.77092      .   S
    C188   O372      0.77088      .   S
    C68    O372      0.77088      .   S
    C189   O373      0.77087      .   S
    C69    O373      0.77087      .   S
    C191   O374      0.77087      .   S
    C71    O374      0.77087      .   S
    C190   O375      0.77087      .   S
    C70    O375      0.77087      .   S
    C187   O376      0.88161      .   S
    C5     O376      0.88161  1_455   S
    C187   O377      0.77407  1_565   S
    C70    O377      0.77407      .   S
    C186   O378      0.88161      .   S
    C4     O378      0.88161  1_455   S
    C186   O379      0.77397      .   S
    C71    O379      0.77397      .   S
    C185   O380      0.88164      .   S
    C7     O380      0.88164      .   S
    C185   O381      0.77407  1_565   S
    C68    O381      0.77407      .   S
    C184   O382      0.88164      .   S
    C6     O382      0.88164      .   S
    C184   O383      0.77397      .   S
    C69    O383      0.77397      .   S
    C7     O384      0.87309      .   S
    C155   O384      0.87309      .   S
    C6     O385      0.87309      .   S
    C154   O385      0.87309      .   S
    C5     O386      0.87730      .   S
    C153   O386      0.87730      .   S
    C4     O387      0.87730      .   S
    C152   O387      0.87730      .   S
    C68    O388      0.77235      .   S
    C161   O388      0.77235  1_565   S
    C69    O389      0.77235      .   S
    C160   O389      0.77235      .   S
    C70    O390      0.77235      .   S
    C163   O390      0.77235  1_565   S
    C71    O391      0.77235      .   S
    C162   O391      0.77235      .   S
    C104   O392      0.87751      .   S
    C16    O392      0.87751      .   S
    C105   O393      0.87751      .   S
    C17    O393      0.87751      .   S
    C106   O394      0.87751      .   S
    C18    O394      0.87751      .   S
    C107   O395      0.87751      .   S
    C19    O395      0.87751      .   S
    C112   O396      0.77220  1_455   S
    C58    O396      0.77220      .   S
    C113   O397      0.77220  1_455   S
    C59    O397      0.77220      .   S
    C114   O398      0.77220      .   S
    C56    O398      0.77220      .   S
    C115   O399      0.77220      .   S
    C57    O399      0.77220      .   S
    C160   O400      0.87979      .   S
    C13    O400      0.87979      .   S
    C163   O401      0.87986  1_565   S
    C14    O401      0.87986      .   S
    C162   O402      0.87979      .   S
    C15    O402      0.87979      .   S
    C161   O403      0.87986  1_565   S
    C12    O403      0.87986      .   S
    C154   O404      0.77474      .   S
    C62    O404      0.77474      .   S
    C155   O405      0.77474      .   S
    C63    O405      0.77474      .   S
    C152   O406      0.77077      .   S
    C60    O406      0.77077      .   S
    C153   O407      0.77077      .   S
    C61    O407      0.77077      .   S
    C58    O408      0.77391      .   S
    C136   O408      0.77391  1_455   S
    C58    O409      0.77080      .   S
    C142   O409      0.77080      .   S
    C58    O410      0.76820      .   S
    C126   O410      0.76820      .   S
    C57    O411      0.77393      .   S
    C139   O411      0.77393      .   S
    C57    O412      0.77080      .   S
    C141   O412      0.77080      .   S
    C57    O413      0.76820      .   S
    C125   O413      0.76820      .   S
    C56    O414      0.77394      .   S
    C138   O414      0.77394      .   S
    C56    O415      0.77080      .   S
    C140   O415      0.77080      .   S
    C56    O416      0.76820      .   S
    C124   O416      0.76820      .   S
    C59    O417      0.77391      .   S
    C137   O417      0.77391  1_455   S
    C59    O418      0.77080      .   S
    C143   O418      0.77080      .   S
    C59    O419      0.76819      .   S
    C127   O419      0.76819      .   S
    C19    O420      0.88180  1_565   S
    C138   O420      0.88180      .   S
    C19    O421      0.87957      .   S
    C147   O421      0.87957      .   S
    C19    O422      0.87792      .   S
    C166   O422      0.87792  1_545   S
    C18    O423      0.88168      .   S
    C139   O423      0.88168      .   S
    C18    O424      0.87957      .   S
    C146   O424      0.87957      .   S
    C18    O425      0.87793      .   S
    C167   O425      0.87793      .   S
    C17    O426      0.88180  1_565   S
    C136   O426      0.88180      .   S
    C17    O427      0.87957      .   S
    C145   O427      0.87957      .   S
    C17    O428      0.87792      .   S
    C164   O428      0.87792  1_545   S
    C16    O429      0.88168      .   S
    C137   O429      0.88168      .   S
    C16    O430      0.87957      .   S
    C144   O430      0.87957      .   S
    C16    O431      0.87793      .   S
    C165   O431      0.87793      .   S
    C142   O432      0.88100      .   S
    C14    O432      0.88100      .   S
    C143   O433      0.88101      .   S
    C15    O433      0.88101      .   S
    C141   O434      0.88101      .   S
    C13    O434      0.88101      .   S
    C140   O435      0.88100      .   S
    C12    O435      0.88100      .   S
    C148   O436      0.77239      .   S
    C60    O436      0.77239      .   S
    C148   O437      0.87998      .   S
    C8     O437      0.87998      .   S
    C149   O438      0.77239      .   S
    C61    O438      0.77239      .   S
    C149   O439      0.87998      .   S
    C9     O439      0.87998      .   S
    C150   O440      0.77239      .   S
    C62    O440      0.77239      .   S
    C150   O441      0.87998      .   S
    C10    O441      0.87998      .   S
    C151   O442      0.77239      .   S
    C63    O442      0.77239      .   S
    C151   O443      0.87998      .   S
    C11    O443      0.87998      .   S
    C12    O444      0.87827      .   S
    C156   O444      0.87827      .   S
    C12    O445      0.87809  1_545   S
    C265   O445      0.87809      .   S
    C13    O446      0.87827      .   S
    C157   O446      0.87827      .   S
    C13    O447      0.87802      .   S
    C264   O447      0.87802      .   S
    C14    O448      0.87827      .   S
    C158   O448      0.87827      .   S
    C14    O449      0.87809  1_545   S
    C267   O449      0.87809      .   S
    C15    O450      0.87827      .   S
    C159   O450      0.87827      .   S
    C15    O451      0.87802      .   S
    C266   O451      0.87802      .   S
    C60    O452      0.77234      .   S
    C144   O452      0.77234      .   S
    C60    O453      0.76987      .   S
    C178   O453      0.76987  1_655   S
    C61    O454      0.77234      .   S
    C145   O454      0.77234      .   S
    C61    O455      0.76986      .   S
    C179   O455      0.76986  1_655   S
    C62    O456      0.77235      .   S
    C146   O456      0.77235      .   S
    C62    O457      0.76990      .   S
    C176   O457      0.76990      .   S
    C63    O458      0.77234      .   S
    C147   O458      0.77234      .   S
    C63    O459      0.76990      .   S
    C177   O459      0.76990      .   S
    C125   O460      0.87938      .   S
    C11    O460      0.87938      .   S
    C127   O461      0.87933  1_655   S
    C9     O461      0.87933      .   S
    C126   O462      0.87932  1_655   S
    C8     O462      0.87932      .   S
    C124   O463      0.87937      .   S
    C10    O463      0.87937      .   S
    C164   O464      0.77393      .   S
    C64    O464      0.77393      .   S
    C165   O465      0.77392      .   S
    C65    O465      0.77392      .   S
    C166   O466      0.77393      .   S
    C66    O466      0.77393      .   S
    C167   O467      0.77392      .   S
    C67    O467      0.77392      .   S
    C159   O468      0.76896      .   S
    C67    O468      0.76896      .   S
    C158   O469      0.76896      .   S
    C66    O469      0.76896      .   S
    C157   O470      0.76896      .   S
    C65    O470      0.76896      .   S
    C156   O471      0.76896      .   S
    C64    O471      0.76896      .   S
    C180   O472      0.87790      .   S
    C8     O472      0.87790      .   S
    C180   O473      0.76991      .   S
    C64    O473      0.76991      .   S
    C181   O474      0.87789      .   S
    C9     O474      0.87789      .   S
    C181   O475      0.76992      .   S
    C65    O475      0.76992      .   S
    C182   O476      0.87790      .   S
    C10    O476      0.87790      .   S
    C182   O477      0.76991      .   S
    C66    O477      0.76991      .   S
    C183   O478      0.87789      .   S
    C11    O478      0.87789      .   S
    C183   O479      0.76992      .   S
    C67    O479      0.76992      .   S
    C8     O480      0.87760      .   S
    C272   O480      0.87760      .   S
    C9     O481      0.87760      .   S
    C273   O481      0.87760      .   S
    C11    O482      0.87760      .   S
    C275   O482      0.87760      .   S
    C10    O483      0.87760      .   S
    C274   O483      0.87760      .   S
    C64    O484      0.77111      .   S
    C168   O484      0.77111      .   S
    C65    O485      0.77111      .   S
    C169   O485      0.77111      .   S
    C66    O486      0.77111      .   S
    C170   O486      0.77111      .   S
    C67    O487      0.77111      .   S
    C171   O487      0.77111      .   S
    C179   O488      0.87753      .   S
    C35    O488      0.87753      .   S
    C176   O489      0.87753      .   S
    C32    O489      0.87753      .   S
    C177   O490      0.87753      .   S
    C33    O490      0.87753      .   S
    C178   O491      0.87753      .   S
    C34    O491      0.87753      .   S
    C267   O492      0.77132      .   S
    C91    O492      0.77132      .   S
    C266   O493      0.77132      .   S
    C90    O493      0.77132      .   S
    C265   O494      0.77132      .   S
    C89    O494      0.77132      .   S
    C264   O495      0.77132      .   S
    C88    O495      0.77132      .   S
    C169   O496      0.87817      .   S
    C36    O496      0.87817      .   S
    C170   O497      0.87824      .   S
    C39    O497      0.87824  1_565   S
    C171   O498      0.87818      .   S
    C38    O498      0.87818      .   S
    C168   O499      0.87825      .   S
    C37    O499      0.87825  1_565   S
    C273   O500      0.76986  1_455   S
    C87    O500      0.76986      .   S
    C274   O501      0.76990      .   S
    C84    O501      0.76990      .   S
    C275   O502      0.76990      .   S
    C85    O502      0.76990      .   S
    C272   O503      0.76986  1_455   S
    C86    O503      0.76986      .   S
    C89    O504      0.76991      .   S
    C277   O504      0.76991      .   S
    C89    O505      0.76894      .   S
    C253   O505      0.76894      .   S
    C89    O506      0.77396      .   S
    C261   O506      0.77396      .   S
    C91    O507      0.76991      .   S
    C279   O507      0.76991      .   S
    C91    O508      0.76894      .   S
    C255   O508      0.76894      .   S
    C91    O509      0.77395      .   S
    C263   O509      0.77395      .   S
    C90    O510      0.76992      .   S
    C278   O510      0.76992      .   S
    C90    O511      0.76894      .   S
    C254   O511      0.76894      .   S
    C90    O512      0.77396      .   S
    C262   O512      0.77396      .   S
    C88    O513      0.76992      .   S
    C276   O513      0.76992      .   S
    C88    O514      0.76894      .   S
    C252   O514      0.76894      .   S
    C88    O515      0.77396      .   S
    C260   O515      0.77396      .   S
    C35    O516      0.87790      .   S
    C279   O516      0.87790      .   S
    C35    O517      0.87933      .   S
    C221   O517      0.87933  1_455   S
    C35    O518      0.87998      .   S
    C247   O518      0.87998      .   S
    C34    O519      0.87789      .   S
    C278   O519      0.87789      .   S
    C34    O520      0.87933      .   S
    C220   O520      0.87933  1_455   S
    C34    O521      0.87999      .   S
    C246   O521      0.87999      .   S
    C33    O522      0.87790      .   S
    C277   O522      0.87790      .   S
    C33    O523      0.87939      .   S
    C223   O523      0.87939      .   S
    C33    O524      0.87998      .   S
    C245   O524      0.87998      .   S
    C32    O525      0.87789      .   S
    C276   O525      0.87789      .   S
    C32    O526      0.87938      .   S
    C222   O526      0.87938      .   S
    C32    O527      0.87999      .   S
    C244   O527      0.87999      .   S
    C252   O528      0.87825      .   S
    C36    O528      0.87825      .   S
    C255   O529      0.87825      .   S
    C39    O529      0.87825      .   S
    C254   O530      0.87825      .   S
    C38    O530      0.87825      .   S
    C253   O531      0.87824      .   S
    C37    O531      0.87824      .   S
    C260   O532      0.87791      .   S
    C41    O532      0.87791      .   S
    C261   O533      0.87789  1_565   S
    C40    O533      0.87789      .   S
    C262   O534      0.87791      .   S
    C43    O534      0.87791      .   S
    C263   O535      0.87790  1_565   S
    C42    O535      0.87790      .   S
    C242   O536      0.77249      .   S
    C86    O536      0.77249      .   S
    C242   O537      0.87960      .   S
    C42    O537      0.87960      .   S
    C243   O538      0.77249      .   S
    C87    O538      0.77249      .   S
    C243   O539      0.87959      .   S
    C43    O539      0.87959      .   S
    C240   O540      0.77233      .   S
    C84    O540      0.77233      .   S
    C240   O541      0.87957      .   S
    C40    O541      0.87957      .   S
    C241   O542      0.77234      .   S
    C85    O542      0.77234      .   S
    C241   O543      0.87956      .   S
    C41    O543      0.87956      .   S
    C222   O544      0.76820      .   S
    C82    O544      0.76820      .   S
    C221   O545      0.76820      .   S
    C81    O545      0.76820      .   S
    C220   O546      0.76820      .   S
    C80    O546      0.76820      .   S
    C223   O547      0.76820      .   S
    C83    O547      0.76820      .   S
    C38    O548      0.88104      .   S
    C238   O548      0.88104      .   S
    C38    O549      0.87980      .   S
    C259   O549      0.87980      .   S
    C87    O550      0.77240      .   S
    C247   O550      0.77240      .   S
    C87    O551      0.77070      .   S
    C251   O551      0.77070      .   S
    C86    O552      0.77240      .   S
    C246   O552      0.77240      .   S
    C86    O553      0.77070      .   S
    C250   O553      0.77070      .   S
    C85    O554      0.77240      .   S
    C245   O554      0.77240      .   S
    C85    O555      0.77071      .   S
    C249   O555      0.77071      .   S
    C84    O556      0.77240      .   S
    C244   O556      0.77240      .   S
    C84    O557      0.77070      .   S
    C248   O557      0.77070      .   S
    C39    O558      0.88104      .   S
    C239   O558      0.88104      .   S
    C39    O559      0.87986      .   S
    C258   O559      0.87986  1_545   S
    C36    O560      0.88104      .   S
    C236   O560      0.88104      .   S
    C36    O561      0.87980      .   S
    C257   O561      0.87980      .   S
    C37    O562      0.88104      .   S
    C237   O562      0.88104      .   S
    C37    O563      0.87987      .   S
    C256   O563      0.87987  1_545   S
    C236   O564      0.77080      .   S
    C80    O564      0.77080      .   S
    C237   O565      0.77080      .   S
    C81    O565      0.77080      .   S
    C238   O566      0.77080      .   S
    C82    O566      0.77080      .   S
    C239   O567      0.77081      .   S
    C83    O567      0.77081      .   S
    C232   O568      0.88169      .   S
    C41    O568      0.88169      .   S
    C232   O569      0.77394      .   S
    C82    O569      0.77394      .   S
    C235   O570      0.88180      .   S
    C42    O570      0.88180  1_545   S
    C235   O571      0.77391  1_655   S
    C81    O571      0.77391      .   S
    C234   O572      0.88169      .   S
    C43    O572      0.88169      .   S
    C234   O573      0.77390  1_655   S
    C80    O573      0.77390      .   S
    C233   O574      0.88180      .   S
    C40    O574      0.88180  1_545   S
    C233   O575      0.77393      .   S
    C83    O575      0.77393      .   S
    C43    O576      0.87750      .   S
    C203   O576      0.87750      .   S
    C42    O577      0.87750      .   S
    C202   O577      0.87750      .   S
    C41    O578      0.87750      .   S
    C201   O578      0.87750      .   S
    C40    O579      0.87750      .   S
    C200   O579      0.87750      .   S
    C81    O580      0.77226      .   S
    C211   O580      0.77226  1_655   S
    C82    O581      0.77227      .   S
    C208   O581      0.77227      .   S
    C83    O582      0.77227      .   S
    C209   O582      0.77227      .   S
    C80    O583      0.77226      .   S
    C210   O583      0.77226  1_655   S
    C249   O584      0.87739      .   S
    C29    O584      0.87739      .   S
    C251   O585      0.87739      .   S
    C31    O585      0.87739      .   S
    C250   O586      0.87739      .   S
    C30    O586      0.87739      .   S
    C248   O587      0.87739      .   S
    C28    O587      0.87739      .   S
    C259   O588      0.77235      .   S
    C94    O588      0.77235      .   S
    C258   O589      0.77235  1_545   S
    C95    O589      0.77235      .   S
    C257   O590      0.77235      .   S
    C92    O590      0.77235      .   S
    C256   O591      0.77235  1_545   S
    C93    O591      0.77235      .   S
    C209   O592      0.87960      .   S
    C27    O592      0.87960      .   S
    C210   O593      0.87957  1_655   S
    C24    O593      0.87957      .   S
    C211   O594      0.87957  1_655   S
    C25    O594      0.87957      .   S
    C208   O595      0.87961      .   S
    C26    O595      0.87961      .   S
    C203   O596      0.77089      .   S
    C75    O596      0.77089      .   S
    C202   O597      0.77090      .   S
    C74    O597      0.77090      .   S
    C201   O598      0.77089      .   S
    C73    O598      0.77089      .   S
    C200   O599      0.77089      .   S
    C72    O599      0.77089      .   S
    C94    O600      0.77397      .   S
    C283   O600      0.77397      .   S
    C94    O601      0.77087      .   S
    C286   O601      0.77087      .   S
    C94    O602      0.76821      .   S
    C270   O602      0.76821      .   S
    C95    O603      0.77406      .   S
    C282   O603      0.77406  1_545   S
    C95    O604      0.77088      .   S
    C287   O604      0.77088      .   S
    C95    O605      0.76822      .   S
    C271   O605      0.76822      .   S
    C93    O606      0.77406      .   S
    C280   O606      0.77406  1_545   S
    C93    O607      0.77088      .   S
    C285   O607      0.77088      .   S
    C93    O608      0.76822      .   S
    C269   O608      0.76822      .   S
    C92    O609      0.77397      .   S
    C281   O609      0.77397      .   S
    C92    O610      0.77087      .   S
    C284   O610      0.77087      .   S
    C92    O611      0.76821      .   S
    C268   O611      0.76821      .   S
    C31    O612      0.88161  1_655   S
    C281   O612      0.88161      .   S
    C31    O613      0.87957      .   S
    C195   O613      0.87957      .   S
    C31    O614      0.87789      .   S
    C213   O614      0.87789  1_455   S
    C30    O615      0.88162  1_655   S
    C280   O615      0.88162      .   S
    C30    O616      0.87956      .   S
    C194   O616      0.87956      .   S
    C30    O617      0.87789      .   S
    C212   O617      0.87789  1_455   S
    C29    O618      0.88164      .   S
    C283   O618      0.88164      .   S
    C29    O619      0.87957      .   S
    C193   O619      0.87957      .   S
    C29    O620      0.87791      .   S
    C215   O620      0.87791      .   S
    C28    O621      0.88164      .   S
    C282   O621      0.88164      .   S
    C28    O622      0.87956      .   S
    C192   O622      0.87956      .   S
    C28    O623      0.87791      .   S
    C214   O623      0.87791      .   S
    C287   O624      0.88103      .   S
    C27    O624      0.88103      .   S
    C286   O625      0.88103      .   S
    C26    O625      0.88103      .   S
    C285   O626      0.88103      .   S
    C25    O626      0.88103      .   S
    C284   O627      0.88103      .   S
    C24    O627      0.88103      .   S
    C199   O628      0.77254      .   S
    C75    O628      0.77254      .   S
    C199   O629      0.88021      .   S
    C47    O629      0.88021      .   S
    C198   O630      0.77253      .   S
    C74    O630      0.77253      .   S
    C198   O631      0.88021      .   S
    C46    O631      0.88021      .   S
    C197   O632      0.77254      .   S
    C73    O632      0.77254      .   S
    C197   O633      0.88021      .   S
    C45    O633      0.88021      .   S
    C196   O634      0.77254      .   S
    C72    O634      0.77254      .   S
    C196   O635      0.88021      .   S
    C44    O635      0.88021      .   S
    C75    O636      0.77237      .   S
    C195   O636      0.77237      .   S
    C75    O637      0.76985      .   S
    C226   O637      0.76985      .   S
    C74    O638      0.77237      .   S
    C194   O638      0.77237      .   S
    C74    O639      0.76992      .   S
    C227   O639      0.76992  1_565   S
    C73    O640      0.77236      .   S
    C193   O640      0.77236      .   S
    C73    O641      0.76985      .   S
    C224   O641      0.76985      .   S
    C72    O642      0.77237      .   S
    C192   O642      0.77237      .   S
    C72    O643      0.76991      .   S
    C225   O643      0.76991  1_565   S
    C24    O644      0.87803      .   S
    C204   O644      0.87803      .   S
    C24    O645      0.87812  1_455   S
    C122   O645      0.87812      .   S
    C25    O646      0.87803      .   S
    C205   O646      0.87803      .   S
    C25    O647      0.87812  1_455   S
    C123   O647      0.87812      .   S
    C26    O648      0.87803      .   S
    C206   O648      0.87803      .   S
    C26    O649      0.87816      .   S
    C120   O649      0.87816      .   S
    C27    O650      0.87803      .   S
    C207   O650      0.87803      .   S
    C27    O651      0.87815      .   S
    C121   O651      0.87815      .   S
    C268   O652      0.87950      .   S
    C45    O652      0.87950      .   S
    C271   O653      0.87955  1_565   S
    C46    O653      0.87955      .   S
    C270   O654      0.87949      .   S
    C47    O654      0.87949      .   S
    C269   O655      0.87955  1_565   S
    C44    O655      0.87955      .   S
    C213   O656      0.77395      .   S
    C77    O656      0.77395      .   S
    C214   O657      0.77395      .   S
    C78    O657      0.77395      .   S
    C215   O658      0.77395      .   S
    C79    O658      0.77395      .   S
    C212   O659      0.77396      .   S
    C76    O659      0.77396      .   S
    C204   O660      0.76889      .   S
    C76    O660      0.76889      .   S
    C205   O661      0.76889      .   S
    C77    O661      0.76889      .   S
    C206   O662      0.76890      .   S
    C78    O662      0.76890      .   S
    C207   O663      0.76890      .   S
    C79    O663      0.76890      .   S
    C229   O664      0.87829      .   S
    C45    O664      0.87829      .   S
    C229   O665      0.77010      .   S
    C77    O665      0.77010      .   S
    C228   O666      0.87829      .   S
    C44    O666      0.87829      .   S
    C228   O667      0.77009      .   S
    C76    O667      0.77009      .   S
    C230   O668      0.87825      .   S
    C46    O668      0.87825      .   S
    C230   O669      0.77005      .   S
    C78    O669      0.77005      .   S
    C231   O670      0.87826      .   S
    C47    O670      0.87826      .   S
    C231   O671      0.77005      .   S
    C79    O671      0.77005      .   S
