# CIF file generated by openbabel 2.4.90, see http://openbabel.sf.net
data_I
_chemical_name_common ''
_cell_length_a 15.556
_cell_length_b 21.857
_cell_length_c 21.842
_cell_angle_alpha 119.901
_cell_angle_beta 89.952
_cell_angle_gamma 90.044
_space_group_name_H-M_alt 'P 1'
_space_group_name_Hall 'P 1'
loop_
    _symmetry_equiv_pos_as_xyz
    x,y,z
loop_
    _atom_site_label
    _atom_site_type_symbol
    _atom_site_fract_x
    _atom_site_fract_y
    _atom_site_fract_z
    _atom_site_occupancy
    H0      H    0.23609   0.35143   0.41702   1.000
    H1      H    0.73610   0.35142   0.41703   1.000
    H2      H    0.19177   0.32993   0.33409   1.000
    H3      H    0.69178   0.32992   0.33410   1.000
    H4      H    0.18035   0.27029   0.36753   1.000
    H5      H    0.68035   0.27029   0.36753   1.000
    H6      H    0.06153   0.27736   0.42970   1.000
    H7      H    0.56152   0.27735   0.42971   1.000
    H8      H    0.46682   0.20800   0.40994   1.000
    H9      H    0.96683   0.20800   0.40994   1.000
    H10     H    0.36173   0.13112   0.42135   1.000
    H11     H    0.86173   0.13113   0.42135   1.000
    H12     H    0.21954   0.31398   0.57330   1.000
    H13     H    0.71955   0.31399   0.57330   1.000
    H14     H    0.32682   0.39098   0.56140   1.000
    H15     H    0.82683   0.39099   0.56146   1.000
    H16     H    0.30151   0.07966   0.47127   1.000
    H17     H    0.80152   0.07966   0.47127   1.000
    H18     H    0.18435   0.00127   0.46760   1.000
    H19     H    0.68436   0.00128   0.46759   1.000
    H20     H    0.00051   0.15655   0.52409   1.000
    H21     H    0.50052   0.15656   0.52409   1.000
    H22     H    0.10784   0.24186   0.52583   1.000
    H23     H    0.60786   0.24187   0.52584   1.000
    H24     H    0.23589   0.06596   0.64893   1.000
    H25     H    0.73590   0.06598   0.64890   1.000
    H26     H    0.19154   0.00000   0.67070   1.000
    H27     H    0.69155   0.00000   0.67060   1.000
    H28     H    0.18011   0.09758   0.73014   1.000
    H29     H    0.68013   0.09759   0.73013   1.000
    H30     H    0.06119   0.15230   0.72288   1.000
    H31     H    0.56119   0.15230   0.72288   1.000
    H32     H    0.46664   0.20197   0.79215   1.000
    H33     H    0.96664   0.20196   0.79214   1.000
    H34     H    0.36169   0.29013   0.86880   1.000
    H35     H    0.86169   0.29013   0.86887   1.000
    H36     H    0.21945   0.25883   0.68568   1.000
    H37     H    0.71947   0.25884   0.68567   1.000
    H38     H    0.32660   0.17013   0.60882   1.000
    H39     H    0.82661   0.17013   0.60881   1.000
    H40     H    0.30158   0.39139   0.92007   1.000
    H41     H    0.80158   0.39138   0.92007   1.000
    H42     H    0.18462   0.46620   0.99832   1.000
    H43     H    0.68462   0.46619   0.99831   1.000
    H44     H    0.00064   0.36736   0.84309   1.000
    H45     H    0.50065   0.36736   0.84307   1.000
    H46     H    0.10779   0.28375   0.75796   1.000
    H47     H    0.60780   0.28376   0.75794   1.000
    H48     H    0.23611   0.58299   0.93400   1.000
    H49     H    0.73612   0.58296   0.93398   1.000
    H50     H    0.19178   0.66583   0.99520   1.000
    H51     H    0.69180   0.66581   0.99520   1.000
    H52     H    0.18044   0.63254   0.90227   1.000
    H53     H    0.68046   0.63251   0.90225   1.000
    H54     H    0.06146   0.57051   0.84744   1.000
    H55     H    0.56146   0.57051   0.84743   1.000
    H56     H    0.46671   0.59007   0.79760   1.000
    H57     H    0.96671   0.59008   0.79769   1.000
    H58     H    0.36164   0.57856   0.70945   1.000
    H59     H    0.86165   0.57855   0.70945   1.000
    H60     H    0.21954   0.42675   0.74121   1.000
    H61     H    0.71957   0.42673   0.74100   1.000
    H62     H    0.32682   0.43866   0.82995   1.000
    H63     H    0.82684   0.43865   0.82995   1.000
    H64     H    0.30151   0.52849   0.60820   1.000
    H65     H    0.80152   0.52850   0.60821   1.000
    H66     H    0.18444   0.53203   0.53342   1.000
    H67     H    0.68444   0.53204   0.53344   1.000
    H68     H    0.00050   0.47568   0.63271   1.000
    H69     H    0.50051   0.47566   0.63270   1.000
    H70     H    0.10774   0.47408   0.71633   1.000
    H71     H    0.60775   0.47406   0.71633   1.000
    H72     H    0.26392   0.64854   0.58296   1.000
    H73     H    0.76394   0.64858   0.58300   1.000
    H74     H    0.30824   0.67006   0.66589   1.000
    H75     H    0.80827   0.67007   0.66592   1.000
    H76     H    0.31966   0.72968   0.63244   1.000
    H77     H    0.81970   0.72971   0.63200   1.000
    H78     H    0.43849   0.72262   0.57027   1.000
    H79     H    0.93851   0.72264   0.57030   1.000
    H80     H    0.03320   0.79199   0.59006   1.000
    H81     H    0.53320   0.79198   0.59000   1.000
    H82     H    0.13829   0.86886   0.57860   1.000
    H83     H    0.63830   0.86885   0.57864   1.000
    H84     H    0.28047   0.68601   0.42670   1.000
    H85     H    0.78048   0.68599   0.42670   1.000
    H86     H    0.17319   0.60901   0.43854   1.000
    H87     H    0.67320   0.60899   0.43853   1.000
    H88     H    0.19851   0.92033   0.52874   1.000
    H89     H    0.69851   0.92032   0.52872   1.000
    H90     H    0.31566   0.99872   0.53241   1.000
    H91     H    0.81566   0.99871   0.53239   1.000
    H92     H    0.49950   0.84344   0.47590   1.000
    H93     H    0.99951   0.84343   0.47590   1.000
    C94     C    0.83378   0.19708   0.66593   1.000
    C95     C    0.21531   0.32971   0.83083   1.000
    C96     C    0.71532   0.32970   0.83082   1.000
    C97     C    0.23590   0.38270   0.89989   1.000
    H98     H    0.39217   0.75813   0.47417   1.000
    H99     H    0.89218   0.75812   0.47416   1.000
    H100    H    0.26412   0.93402   0.35108   1.000
    H101    H    0.76413   0.93402   0.35107   1.000
    H102    H    0.30847   0.99533   0.32931   1.000
    H103    H    0.80849   0.99533   0.32931   1.000
    H104    H    0.31989   0.90240   0.26986   1.000
    H105    H    0.81991   0.90240   0.26980   1.000
    H106    H    0.43883   0.84769   0.27711   1.000
    H107    H    0.93884   0.84769   0.27711   1.000
    H108    H    0.03338   0.79802   0.20785   1.000
    H109    H    0.53338   0.79802   0.20785   1.000
    H110    H    0.13833   0.70986   0.13112   1.000
    H111    H    0.63833   0.70986   0.13112   1.000
    H112    H    0.28056   0.74115   0.31431   1.000
    H113    H    0.78056   0.74115   0.31430   1.000
    H114    H    0.17342   0.82985   0.39118   1.000
    H115    H    0.67341   0.82985   0.39118   1.000
    H116    H    0.19844   0.60860   0.07992   1.000
    H117    H    0.69844   0.60860   0.07992   1.000
    H118    H    0.31540   0.53379   0.00167   1.000
    H119    H    0.81540   0.53379   0.00168   1.000
    H120    H    0.49937   0.63262   0.15691   1.000
    H121    H    0.99937   0.63263   0.15692   1.000
    H122    H    0.39223   0.71623   0.24204   1.000
    H123    H    0.89222   0.71623   0.24205   1.000
    H124    H    0.26390   0.41702   0.06600   1.000
    H125    H    0.76392   0.41700   0.06600   1.000
    C126    C    0.22647   0.70972   0.46284   1.000
    C127    C    0.72647   0.70971   0.46283   1.000
    C128    C    0.16607   0.66608   0.46870   1.000
    C129    C    0.66608   0.66607   0.46869   1.000
    C130    C    0.28472   0.83105   0.50111   1.000
    H131    H    0.30822   0.33417   0.00000   1.000
    H132    H    0.80824   0.33416   0.00000   1.000
    H133    H    0.31956   0.36747   0.09773   1.000
    H134    H    0.81959   0.36744   0.09772   1.000
    H135    H    0.43856   0.42948   0.15250   1.000
    H136    H    0.93858   0.42946   0.15255   1.000
    H137    H    0.03332   0.40990   0.20231   1.000
    H138    H    0.53331   0.40991   0.20230   1.000
    H139    H    0.13839   0.42142   0.29054   1.000
    H140    H    0.63838   0.42143   0.29054   1.000
    H141    H    0.28047   0.57324   0.25879   1.000
    H142    H    0.78046   0.57325   0.25879   1.000
    H143    H    0.17319   0.56133   0.17000   1.000
    H144    H    0.67320   0.56134   0.17000   1.000
    H145    H    0.19851   0.47149   0.39179   1.000
    H146    H    0.69851   0.47149   0.39179   1.000
    H147    H    0.31558   0.46795   0.46656   1.000
    H148    H    0.81558   0.46795   0.46656   1.000
    H149    H    0.49952   0.52432   0.36729   1.000
    H150    H    0.99951   0.52432   0.36729   1.000
    H151    H    0.39228   0.52592   0.28366   1.000
    H152    H    0.89228   0.52592   0.28366   1.000
    C153    C    0.18100   0.32599   0.38171   1.000
    C154    C    0.68101   0.32598   0.38171   1.000
    C155    C    0.09929   0.36450   0.41843   1.000
    C156    C    0.59929   0.36450   0.41844   1.000
    C157    C    0.04255   0.33021   0.44221   1.000
    C158    C    0.54255   0.33021   0.44221   1.000
    C159    C    0.40453   0.30568   0.48539   1.000
    C160    C    0.90454   0.30569   0.48539   1.000
    C161    C    0.41376   0.23195   0.44692   1.000
    C162    C    0.91378   0.23196   0.44692   1.000
    C163    C    0.35370   0.18815   0.45295   1.000
    C164    C    0.85371   0.18816   0.45295   1.000
    C165    C    0.28150   0.21639   0.49723   1.000
    C166    C    0.78151   0.21640   0.49723   1.000
    C167    C    0.27355   0.29027   0.53717   1.000
    C168    C    0.77356   0.29028   0.53716   1.000
    C169    C    0.33394   0.33391   0.53130   1.000
    C170    C    0.83396   0.33391   0.53130   1.000
    C171    C    0.21529   0.16894   0.49800   1.000
    C172    C    0.71530   0.16894   0.49889   1.000
    C173    C    0.23582   0.09982   0.48270   1.000
    C174    C    0.73583   0.09983   0.48270   1.000
    C175    C    0.17101   0.05548   0.48110   1.000
    C176    C    0.67102   0.05549   0.48113   1.000
    C177    C    0.06801   0.14192   0.51239   1.000
    C178    C    0.56802   0.14193   0.51239   1.000
    C179    C    0.12869   0.18956   0.51424   1.000
    C180    C    0.62870   0.18956   0.51425   1.000
    C181    C    0.18079   0.05609   0.67445   1.000
    C182    C    0.68080   0.05611   0.67440   1.000
    C183    C    0.09911   0.05417   0.63580   1.000
    C184    C    0.59911   0.05418   0.63580   1.000
    C185    C    0.04230   0.11203   0.66990   1.000
    C186    C    0.54230   0.11204   0.66990   1.000
    C187    C    0.40436   0.17953   0.69428   1.000
    C188    C    0.90436   0.17953   0.69427   1.000
    C189    C    0.41360   0.21486   0.76806   1.000
    C190    C    0.91361   0.21486   0.76806   1.000
    C191    C    0.35361   0.26464   0.81180   1.000
    C192    C    0.85361   0.26463   0.81180   1.000
    C193    C    0.28143   0.28057   0.78345   1.000
    C194    C    0.78144   0.28057   0.78344   1.000
    C195    C    0.27343   0.24652   0.70950   1.000
    C196    C    0.77344   0.24651   0.70950   1.000
    C197    C    0.33377   0.19708   0.66594   1.000
    C198    C    0.73590   0.38269   0.89988   1.000
    C199    C    0.17117   0.42551   0.94415   1.000
    C200    C    0.67118   0.42550   0.94410   1.000
    C201    C    0.06812   0.37032   0.85777   1.000
    C202    C    0.56813   0.37032   0.85775   1.000
    C203    C    0.12871   0.32448   0.81021   1.000
    C204    C    0.62872   0.32448   0.81019   1.000
    C205    C    0.18103   0.61829   0.94382   1.000
    C206    C    0.68105   0.61827   0.94380   1.000
    C207    C    0.09930   0.58155   0.94574   1.000
    C208    C    0.59931   0.58154   0.94573   1.000
    C209    C    0.04250   0.55793   0.88783   1.000
    C210    C    0.54251   0.55792   0.88782   1.000
    C211    C    0.40449   0.51469   0.82033   1.000
    C212    C    0.90450   0.51469   0.82034   1.000
    C213    C    0.41367   0.55310   0.78487   1.000
    C214    C    0.91368   0.55311   0.78487   1.000
    C215    C    0.35361   0.54702   0.73506   1.000
    C216    C    0.85362   0.54702   0.73507   1.000
    C217    C    0.28144   0.50275   0.71926   1.000
    C218    C    0.78146   0.50273   0.71926   1.000
    C219    C    0.27352   0.46288   0.75343   1.000
    C220    C    0.77354   0.46287   0.75343   1.000
    C221    C    0.33393   0.46878   0.80288   1.000
    C222    C    0.83395   0.46877   0.80288   1.000
    C223    C    0.21525   0.50096   0.67011   1.000
    C224    C    0.71526   0.50096   0.67010   1.000
    C225    C    0.23581   0.51701   0.61697   1.000
    C226    C    0.73582   0.51701   0.61698   1.000
    C227    C    0.17105   0.51854   0.57421   1.000
    C228    C    0.67106   0.51854   0.57422   1.000
    C229    C    0.06800   0.48737   0.62966   1.000
    C230    C    0.56801   0.48735   0.62966   1.000
    C231    C    0.12863   0.48560   0.67549   1.000
    C232    C    0.62864   0.48558   0.67549   1.000
    C233    C    0.31901   0.67399   0.61827   1.000
    C234    C    0.81903   0.67401   0.61831   1.000
    C235    C    0.40073   0.63548   0.58156   1.000
    C236    C    0.90074   0.63548   0.58156   1.000
    C237    C    0.45747   0.66977   0.55777   1.000
    C238    C    0.95749   0.66979   0.55780   1.000
    C239    C    0.09549   0.69431   0.51461   1.000
    C240    C    0.59549   0.69429   0.51400   1.000
    C241    C    0.08625   0.76803   0.55308   1.000
    C242    C    0.58626   0.76802   0.55307   1.000
    C243    C    0.14632   0.81184   0.54705   1.000
    C244    C    0.64632   0.81183   0.54704   1.000
    C245    C    0.21851   0.78360   0.50277   1.000
    C246    C    0.71852   0.78358   0.50277   1.000
    C247    C    0.78472   0.83104   0.50110   1.000
    C248    C    0.26420   0.90017   0.51726   1.000
    C249    C    0.76420   0.90016   0.51724   1.000
    C250    C    0.32900   0.94450   0.51887   1.000
    C251    C    0.82901   0.94450   0.51886   1.000
    C252    C    0.43201   0.85807   0.48761   1.000
    C253    C    0.93201   0.85806   0.48761   1.000
    C254    C    0.37133   0.81043   0.48576   1.000
    C255    C    0.87133   0.81042   0.48570   1.000
    C256    C    0.31922   0.94389   0.32555   1.000
    C257    C    0.81924   0.94389   0.32554   1.000
    C258    C    0.40091   0.94582   0.36420   1.000
    C259    C    0.90092   0.94581   0.36419   1.000
    C260    C    0.45771   0.88795   0.33001   1.000
    C261    C    0.95773   0.88795   0.33001   1.000
    C262    C    0.09566   0.82046   0.30572   1.000
    C263    C    0.59566   0.82046   0.30572   1.000
    C264    C    0.08642   0.78513   0.23193   1.000
    C265    C    0.58642   0.78513   0.23193   1.000
    C266    C    0.14641   0.73535   0.18800   1.000
    C267    C    0.64641   0.73535   0.18800   1.000
    C268    C    0.21858   0.71942   0.21655   1.000
    C269    C    0.71858   0.71942   0.21655   1.000
    C270    C    0.22659   0.75347   0.29049   1.000
    C271    C    0.72658   0.75347   0.29049   1.000
    C272    C    0.16625   0.80290   0.33406   1.000
    C273    C    0.66624   0.80290   0.33406   1.000
    C274    C    0.28470   0.67028   0.16917   1.000
    C275    C    0.78470   0.67028   0.16917   1.000
    C276    C    0.26412   0.61729   0.10011   1.000
    C277    C    0.76412   0.61729   0.10011   1.000
    C278    C    0.32884   0.57449   0.05584   1.000
    C279    C    0.82885   0.57449   0.05585   1.000
    C280    C    0.43189   0.62967   0.14223   1.000
    C281    C    0.93189   0.62967   0.14224   1.000
    C282    C    0.37131   0.67550   0.18979   1.000
    C283    C    0.87130   0.67550   0.18980   1.000
    C284    C    0.31897   0.38171   0.05618   1.000
    C285    C    0.81899   0.38169   0.05618   1.000
    C286    C    0.40071   0.41845   0.05426   1.000
    C287    C    0.90072   0.41844   0.05426   1.000
    C288    C    0.45751   0.44207   0.11217   1.000
    C289    C    0.95753   0.44205   0.11216   1.000
    C290    C    0.09553   0.48529   0.17966   1.000
    C291    C    0.59553   0.48530   0.17966   1.000
    C292    C    0.08635   0.44687   0.21512   1.000
    C293    C    0.58635   0.44688   0.21512   1.000
    C294    C    0.14641   0.45296   0.26493   1.000
    C295    C    0.64641   0.45296   0.26490   1.000
    C296    C    0.21858   0.49724   0.28070   1.000
    C297    C    0.71858   0.49724   0.28073   1.000
    C298    C    0.22649   0.53711   0.24650   1.000
    C299    C    0.72649   0.53711   0.24656   1.000
    C300    C    0.16609   0.53121   0.19711   1.000
    C301    C    0.66609   0.53121   0.19711   1.000
    C302    C    0.28477   0.49902   0.32988   1.000
    C303    C    0.78477   0.49902   0.32988   1.000
    C304    C    0.26421   0.48298   0.38300   1.000
    C305    C    0.76421   0.48297   0.38301   1.000
    C306    C    0.32897   0.48144   0.42578   1.000
    C307    C    0.82897   0.48144   0.42570   1.000
    C308    C    0.43202   0.51262   0.37033   1.000
    C309    C    0.93202   0.51263   0.37033   1.000
    C310    C    0.37139   0.51439   0.32450   1.000
    C311    C    0.87138   0.51440   0.32450   1.000
    N312    N    0.08814   0.07545   0.49557   1.000
    N313    N    0.58814   0.07545   0.49556   1.000
    N314    N    0.08829   0.42002   0.92400   1.000
    N315    N    0.58830   0.42001   0.92419   1.000
    N316    N    0.08816   0.50411   0.57980   1.000
    N317    N    0.58817   0.50411   0.57985   1.000
    N318    N    0.41188   0.92454   0.50440   1.000
    N319    N    0.91188   0.92453   0.50442   1.000
    N320    N    0.41172   0.57997   0.07580   1.000
    N321    N    0.91172   0.57997   0.07581   1.000
    N322    N    0.41186   0.49587   0.42014   1.000
    N323    N    0.91186   0.49588   0.42014   1.000
    O324    O    0.43309   0.41781   0.50019   1.000
    O325    O    0.93310   0.41781   0.50018   1.000
    O326    O    0.08827   0.42542   0.42487   1.000
    O327    O    0.58828   0.42541   0.42488   1.000
    O328    O    0.43307   0.08243   0.58214   1.000
    O329    O    0.93308   0.08241   0.58214   1.000
    O330    O    0.08824   0.99976   0.57489   1.000
    O331    O    0.58825   0.99977   0.57488   1.000
    O332    O    0.43312   0.49987   0.91770   1.000
    O333    O    0.93312   0.49988   0.91773   1.000
    O334    O    0.08833   0.57497   0.00020   1.000
    O335    O    0.58833   0.57496   0.00019   1.000
    O336    O    0.06693   0.58218   0.49980   1.000
    O337    O    0.56693   0.58217   0.49980   1.000
    O338    O    0.41175   0.57457   0.57512   1.000
    O339    O    0.91175   0.57457   0.57510   1.000
    O340    O    0.06694   0.91756   0.41785   1.000
    O341    O    0.56695   0.91757   0.41785   1.000
    O342    O    0.41178   0.00023   0.42511   1.000
    O343    O    0.91179   0.00022   0.42511   1.000
    O344    O    0.06690   0.50012   0.08228   1.000
    O345    O    0.56690   0.50012   0.08227   1.000
    O346    O    0.41169   0.42503   0.99979   1.000
    O347    O    0.91170   0.42503   0.99900   1.000
loop_
    _geom_bond_atom_site_label_1
    _geom_bond_atom_site_label_2
    _geom_bond_distance
    _geom_bond_site_symmetry_2
    _ccdc_geom_bond_type
    H131   C284      1.15856      .   S
    H132   C285      1.15851      .   S
    O335   C208      1.27869  1_554   S
    O334   C207      1.27865  1_554   S
    H118   C278      1.08889      .   S
    H119   C279      1.08892      .   S
    C286   C284      1.51500      .   S
    C286   C288      1.41324      .   S
    C286   O346      1.27885  1_554   S
    C287   C285      1.51506      .   S
    C287   C289      1.41318      .   S
    C287   O347      1.29593  1_554   S
    C278   N320      1.34732      .   S
    C278   C276      1.38628      .   S
    C279   N321      1.34729      .   S
    C279   C277      1.38622      .   S
    C284   H124      1.10052      .   S
    C284   H133      1.09642      .   S
    C285   H125      1.10056      .   S
    C285   H134      1.09635      .   S
    N320   C280      1.34630      .   S
    N321   C281      1.34632      .   S
    H116   C276      1.09160      .   S
    H117   C277      1.09160      .   S
    C276   C274      1.40631      .   S
    C277   C275      1.40631      .   S
    C289   H136      1.08740      .   S
    C288   H135      1.08614      .   S
    H110   C266      1.08617      .   S
    H111   C267      1.08617      .   S
    C280   H120      1.09026      .   S
    C280   C282      1.39044      .   S
    C281   H121      1.09025      .   S
    C281   C283      1.39045      .   S
    C274   C282      1.40723      .   S
    C274   C268      1.47450      .   S
    C275   C283      1.40727      .   S
    C275   C269      1.47450      .   S
    H143   C300      1.08860      .   S
    H144   C301      1.08863      .   S
    C290   C300      1.40523      .   S
    C290   C292      1.40482      .   S
    C291   C301      1.40523      .   S
    C291   C293      1.40482      .   S
    C267   C269      1.41025      .   S
    C267   C265      1.39093      .   S
    C266   C268      1.41026      .   S
    C266   C264      1.39092      .   S
    C282   H122      1.09000      .   S
    C283   H123      1.08999      .   S
    C300   C298      1.38781      .   S
    C301   C299      1.38877      .   S
    H138   C293      1.08891      .   S
    H137   C292      1.08894      .   S
    H108   C264      1.08885      .   S
    H109   C265      1.08887      .   S
    C293   C295      1.38930      .   S
    C292   C294      1.38975      .   S
    C268   C270      1.40693      .   S
    C269   C271      1.40692      .   S
    C264   C262      1.40499      .   S
    C265   C263      1.40499      .   S
    C298   H141      1.09029      .   S
    C298   C296      1.40766      .   S
    C299   H142      1.09047      .   S
    C299   C297      1.40704      .   S
    C295   C297      1.40781      .   S
    C295   H140      1.09043      .   S
    C294   C296      1.40793      .   S
    C294   H139      1.08992      .   S
    H105   C257      1.09722      .   S
    H104   C256      1.09649      .   S
    H107   C261      1.08730      .   S
    H106   C260      1.08732      .   S
    C296   C302      1.47496      .   S
    C297   C303      1.47458      .   S
    H151   C310      1.09001      .   S
    H152   C311      1.09001      .   S
    C271   H113      1.09028      .   S
    C271   C273      1.38886      .   S
    C270   H112      1.09040      .   S
    C270   C272      1.38886      .   S
    C262   C272      1.40519      .   S
    C263   C273      1.40518      .   S
    C310   C302      1.40727      .   S
    C310   C308      1.39050      .   S
    C311   C303      1.40726      .   S
    C311   C309      1.39044      .   S
    C257   H103      1.09860      .   S
    C257   H101      1.10058      .   S
    C257   C259      1.51503      .   S
    C256   H102      1.09863      .   S
    C256   H100      1.10051      .   S
    C256   C258      1.51506      .   S
    C303   C305      1.40613      .   S
    C302   C304      1.40588      .   S
    C261   C259      1.41315      .   S
    C260   C258      1.41317      .   S
    C272   H114      1.08783      .   S
    C273   H115      1.08783      .   S
    H2     C153      1.09825      .   S
    H3     C154      1.09804      .   S
    C259   O343      1.27895  1_565   S
    C258   O342      1.27885  1_565   S
    H149   C308      1.09022      .   S
    H150   C309      1.09024      .   S
    H4     C153      1.09642      .   S
    H5     C154      1.09640      .   S
    C309   N323      1.34625      .   S
    C308   N322      1.34626      .   S
    C153   H0        1.10054      .   S
    C153   C155      1.51483      .   S
    C154   H1        1.10063      .   S
    C154   C156      1.51489      .   S
    C304   H145      1.09166      .   S
    C304   C306      1.38643      .   S
    C305   H146      1.09159      .   S
    C305   C307      1.38502      .   S
    H9     C162      1.08885      .   S
    H8     C161      1.08890      .   S
    C155   O326      1.27877      .   S
    C155   C157      1.41309      .   S
    C156   O327      1.27876      .   S
    C156   C158      1.41305      .   S
    N322   C306      1.34725      .   S
    N323   C307      1.34689      .   S
    H11    C164      1.08989      .   S
    H10    C163      1.08990      .   S
    C307   H148      1.09036      .   S
    C306   H147      1.08867      .   S
    H85    C127      1.09040      .   S
    H84    C126      1.09042      .   S
    H6     C157      1.08719      .   S
    H7     C158      1.08726      .   S
    H87    C129      1.08778      .   S
    H86    C128      1.08780      .   S
    C161   C163      1.38964      .   S
    C161   C159      1.40482      .   S
    C162   C164      1.38971      .   S
    C162   C160      1.40483      .   S
    C164   C166      1.40777      .   S
    C163   C165      1.40777      .   S
    C127   C129      1.38884      .   S
    C127   C246      1.40693      .   S
    C126   C128      1.38879      .   S
    C126   C245      1.40694      .   S
    H19    C176      1.08880      .   S
    H18    C175      1.08905      .   S
    C129   C240      1.39870      .   S
    C128   C239      1.40508      .   S
    H17    C174      1.09150      .   S
    H16    C173      1.09151      .   S
    H99    C255      1.09029      .   S
    H98    C254      1.09000      .   S
    H93    C253      1.09022      .   S
    H92    C252      1.09024      .   S
    C175   C173      1.38618      .   S
    C175   N312      1.34726      .   S
    C176   C174      1.38645      .   S
    C176   N313      1.34719      .   S
    C174   C172      1.40602      .   S
    C173   C171      1.41167      .   S
    C160   C170      1.40507      .   S
    C159   C169      1.40512      .   S
    C255   C253      1.39000      .   S
    C255   C247      1.40723      .   S
    C254   C252      1.39035      .   S
    C254   C130      1.40715      .   S
    C253   N319      1.34628      .   S
    C252   N318      1.34645      .   S
    N313   C178      1.34622      .   S
    N312   C177      1.34620      .   S
    C166   C172      1.47442      .   S
    C166   C168      1.40692      .   S
    C165   C171      1.46725      .   S
    C165   C167      1.40695      .   S
    C171   C179      1.40880      .   S
    C172   C180      1.40716      .   S
    C247   C246      1.47449      .   S
    C247   C249      1.40629      .   S
    C130   C245      1.47446      .   S
    C130   C248      1.40629      .   S
    C245   C243      1.40772      .   S
    C246   C244      1.40773      .   S
    N318   C250      1.34726      .   S
    N319   C251      1.34720      .   S
    C177   C179      1.39040      .   S
    C177   H20       1.09021      .   S
    C178   C180      1.39034      .   S
    C178   H21       1.09022      .   S
    C240   C242      1.40524      .   S
    C179   H22       1.08997      .   S
    C180   H23       1.08999      .   S
    C239   C241      1.40483      .   S
    C249   C251      1.38612      .   S
    C249   H89       1.09153      .   S
    C248   C250      1.38609      .   S
    C248   H88       1.09154      .   S
    C251   H91       1.08883      .   S
    C250   H90       1.08884      .   S
    C170   C168      1.38887      .   S
    C170   H15       1.08778      .   S
    C169   C167      1.38888      .   S
    C169   H14       1.08773      .   S
    H66    C227      1.08881      .   S
    H67    C228      1.08885      .   S
    C168   H13       1.09045      .   S
    C167   H12       1.09035      .   S
    C244   C242      1.38967      .   S
    C244   H83       1.08991      .   S
    C243   C241      1.38966      .   S
    C243   H82       1.08984      .   S
    C242   H81       1.08834      .   S
    C241   H80       1.08888      .   S
    C237   H78       1.08726      .   S
    C237   C235      1.41316      .   S
    C238   H79       1.08727      .   S
    C238   C236      1.41308      .   S
    C227   N316      1.34703      .   S
    C227   C225      1.38609      .   S
    C228   N317      1.34718      .   S
    C228   C226      1.38602      .   S
    O331   C184      1.27896  1_565   S
    O330   C183      1.27887  1_565   S
    O339   C236      1.27862      .   S
    O338   C235      1.27877      .   S
    N316   C229      1.34716      .   S
    N317   C230      1.34641      .   S
    C235   C233      1.51484      .   S
    C236   C234      1.51489      .   S
    H72    C233      1.10051      .   S
    H73    C234      1.10059      .   S
    H64    C225      1.09153      .   S
    H65    C226      1.09154      .   S
    H39    C94       1.08783      .   S
    H38    C197      1.08783      .   S
    C225   C223      1.40623      .   S
    C226   C224      1.40597      .   S
    C233   H76       1.09644      .   S
    C233   H74       1.09819      .   S
    C234   H77       1.09941      .   S
    C234   H75       1.09811      .   S
    C230   H69       1.09022      .   S
    C230   C232      1.39040      .   S
    C229   H68       1.09027      .   S
    C229   C231      1.39050      .   S
    C184   C186      1.41300      .   S
    C184   C182      1.51448      .   S
    C183   C185      1.41299      .   S
    C183   C181      1.51500      .   S
    H25    C182      1.10013      .   S
    H24    C181      1.10043      .   S
    C94    C188      1.40516      .   S
    C94    C196      1.38887      .   S
    C197   C187      1.40520      .   S
    C197   C195      1.38879      .   S
    C185   H30       1.08850      .   S
    C186   H31       1.08845      .   S
    C224   C232      1.40732      .   S
    C224   C218      1.47485      .   S
    C223   C231      1.40726      .   S
    C223   C217      1.47452      .   S
    H27    C182      1.19895      .   S
    H26    C181      1.19918      .   S
    C182   H29       1.09709      .   S
    C181   H28       1.09648      .   S
    C231   H70       1.08998      .   S
    C232   H71       1.09003      .   S
    H37    C196      1.09052      .   S
    H36    C195      1.09042      .   S
    C188   C190      1.40499      .   S
    C187   C189      1.40480      .   S
    H59    C216      1.08994      .   S
    H58    C215      1.08987      .   S
    C195   C193      1.40712      .   S
    C196   C194      1.40692      .   S
    C217   C215      1.40785      .   S
    C217   C219      1.40702      .   S
    C218   C216      1.40787      .   S
    C218   C220      1.40689      .   S
    C215   C213      1.38978      .   S
    C216   C214      1.38967      .   S
    H61    C220      1.08998      .   S
    H60    C219      1.09046      .   S
    C219   C221      1.38879      .   S
    C220   C222      1.38883      .   S
    H47    C204      1.08997      .   S
    H46    C203      1.09002      .   S
    C190   H33       1.08885      .   S
    C190   C192      1.38970      .   S
    C189   H32       1.08900      .   S
    C189   C191      1.38968      .   S
    C194   C192      1.40789      .   S
    C194   C96       1.47451      .   S
    C193   C191      1.40779      .   S
    C193   C95       1.47450      .   S
    C213   H56       1.08913      .   S
    C213   C211      1.40477      .   S
    C214   H57       1.08891      .   S
    C214   C212      1.40490      .   S
    C221   C211      1.40524      .   S
    C221   H62       1.08781      .   S
    C222   C212      1.40523      .   S
    C222   H63       1.08785      .   S
    C204   C96       1.40728      .   S
    C204   C202      1.39046      .   S
    C203   C95       1.40724      .   S
    C203   C201      1.39044      .   S
    C192   H35       1.08985      .   S
    C191   H34       1.08850      .   S
    C96    C198      1.40630      .   S
    C95    C97       1.40633      .   S
    H45    C202      1.09024      .   S
    H44    C201      1.09026      .   S
    H55    C210      1.08741      .   S
    H54    C209      1.08738      .   S
    C202   N315      1.34641      .   S
    C201   N314      1.34341      .   S
    C210   C208      1.41321      .   S
    C209   C207      1.41320      .   S
    C198   H41       1.09159      .   S
    C198   C200      1.38591      .   S
    C97    H40       1.09156      .   S
    C97    C199      1.38621      .   S
    H53    C206      1.09642      .   S
    H52    C205      1.09652      .   S
    N314   C199      1.34848      .   S
    N315   C200      1.34701      .   S
    H49    C206      1.10052      .   S
    H48    C205      1.10056      .   S
    C206   C208      1.51503      .   S
    C206   H51       1.09775      .   S
    C205   C207      1.51504      .   S
    C205   H50       1.09749      .   S
    C200   H43       1.08946      .   S
    C199   H42       1.08893      .   S
