# CIF file generated by openbabel 2.4.90, see http://openbabel.sf.net
data_I
_chemical_name_common ''
_cell_length_a 15.556
_cell_length_b 21.857
_cell_length_c 21.842
_cell_angle_alpha 119.901
_cell_angle_beta 89.952
_cell_angle_gamma 90.044
_space_group_name_H-M_alt 'P 1'
_space_group_name_Hall 'P 1'
loop_
    _symmetry_equiv_pos_as_xyz
    x,y,z
loop_
    _atom_site_label
    _atom_site_type_symbol
    _atom_site_fract_x
    _atom_site_fract_y
    _atom_site_fract_z
    _atom_site_occupancy
    Mc0     Mc   0.36512   0.93217   0.33403   1.000
    Mc1     Mc   0.56695   0.91757   0.41785   1.000
    Mc2     Mc   0.75318   0.69670   0.19124   1.000
    Mc3     Mc   0.63490   0.06724   0.66594   1.000
    Mc4     Mc   0.43307   0.08243   0.58214   1.000
    Mc5     Mc   0.24684   0.30329   0.80874   1.000
    Mc6     Mc   0.63513   0.59806   0.93205   1.000
    Mc7     Mc   0.43312   0.49987   0.91770   1.000
    Mc8     Mc   0.24682   0.50536   0.69655   1.000
    Mc9     Mc   0.43309   0.41781   0.50019   1.000
    Mc10    Mc   0.63511   0.33438   0.40195   1.000
    Mc11    Mc   0.24685   0.19105   0.49449   1.000
    Mc12    Mc   0.13490   0.06724   0.66596   1.000
    Mc13    Mc   0.93308   0.08241   0.58214   1.000
    Mc14    Mc   0.74684   0.30328   0.80874   1.000
    Mc15    Mc   0.13511   0.33439   0.40194   1.000
    Mc16    Mc   0.93310   0.41781   0.50018   1.000
    Mc17    Mc   0.74686   0.19105   0.49454   1.000
    Mc18    Mc   0.36491   0.66559   0.59803   1.000
    Mc19    Mc   0.56693   0.58217   0.49980   1.000
    Mc20    Mc   0.75317   0.80893   0.50542   1.000
    Mc21    Mc   0.86491   0.40191   0.06723   1.000
    Mc22    Mc   0.06690   0.50012   0.08228   1.000
    Mc23    Mc   0.25320   0.49463   0.30343   1.000
    Mc24    Mc   0.06694   0.91756   0.41785   1.000
    Mc25    Mc   0.86513   0.93216   0.33402   1.000
    Mc26    Mc   0.25318   0.69670   0.19123   1.000
    Mc27    Mc   0.13512   0.59807   0.93206   1.000
    Mc28    Mc   0.93312   0.49988   0.91773   1.000
    Mc29    Mc   0.74683   0.50535   0.69655   1.000
    Mc30    Mc   0.56690   0.50012   0.08227   1.000
    Mc31    Mc   0.36489   0.40192   0.06733   1.000
    Mc32    Mc   0.75319   0.49463   0.30343   1.000
    Mc33    Mc   0.86493   0.66560   0.59800   1.000
    Mc34    Mc   0.06693   0.58218   0.49980   1.000
    Mc35    Mc   0.25316   0.80894   0.50546   1.000
