# CIF file generated by openbabel 2.4.90, see http://openbabel.sf.net
data_I
_chemical_name_common ''
_cell_length_a 15.556
_cell_length_b 21.857
_cell_length_c 21.842
_cell_angle_alpha 119.901
_cell_angle_beta 89.952
_cell_angle_gamma 90.044
_space_group_name_H-M_alt 'P 1'
_space_group_name_Hall 'P 1'
loop_
    _symmetry_equiv_pos_as_xyz
    x,y,z
loop_
    _atom_site_label
    _atom_site_type_symbol
    _atom_site_fract_x
    _atom_site_fract_y
    _atom_site_fract_z
    _atom_site_occupancy
    C0      C    0.46277   0.35527   0.47625   1.000
    C1      C    0.96278   0.35527   0.47623   1.000
    C2      C    0.46261   0.12095   0.64470   1.000
    C3      C    0.96262   0.12094   0.64476   1.000
    C4      C    0.46275   0.52386   0.87901   1.000
    C5      C    0.96277   0.52385   0.87901   1.000
    C6      C    0.03724   0.64472   0.52370   1.000
    C7      C    0.53725   0.64471   0.52376   1.000
    C8      C    0.03741   0.87904   0.35523   1.000
    C9      C    0.53741   0.87905   0.35523   1.000
    C10     C    0.03726   0.47612   0.12098   1.000
    C11     C    0.53726   0.47613   0.12098   1.000
