# CIF file generated by openbabel 2.4.90, see http://openbabel.sf.net
data_I
_chemical_name_common ''
_cell_length_a 15.556
_cell_length_b 21.857
_cell_length_c 21.842
_cell_angle_alpha 119.901
_cell_angle_beta 89.952
_cell_angle_gamma 90.044
_space_group_name_H-M_alt 'P 1'
_space_group_name_Hall 'P 1'
loop_
    _symmetry_equiv_pos_as_xyz
    x,y,z
loop_
    _atom_site_label
    _atom_site_type_symbol
    _atom_site_fract_x
    _atom_site_fract_y
    _atom_site_fract_z
    _atom_site_occupancy
    N0      N    0.53741   0.87905   0.35523   1.000
    N1      N    0.46261   0.12095   0.64470   1.000
    N2      N    0.46275   0.52386   0.87901   1.000
    N3      N    0.46277   0.35527   0.47625   1.000
    N4      N    0.96262   0.12094   0.64476   1.000
    N5      N    0.96278   0.35527   0.47623   1.000
    N6      N    0.53725   0.64471   0.52376   1.000
    N7      N    0.03726   0.47612   0.12098   1.000
    N8      N    0.03741   0.87904   0.35523   1.000
    N9      N    0.96277   0.52386   0.87901   1.000
    N10     N    0.53726   0.47613   0.12098   1.000
    N11     N    0.03724   0.64472   0.52370   1.000
    Zr12    Zr   0.50000   0.00001   0.50000   1.000
    O13     O    0.57274   0.05720   0.49808   1.000
    O14     O    0.42728   0.94281   0.50191   1.000
    Zr15    Zr   0.50001   0.49999   0.99999   1.000
    O16     O    0.57275   0.44082   0.94270   1.000
    O17     O    0.42727   0.55917   0.05728   1.000
    Zr18    Zr   0.00001   0.50000   0.00000   1.000
    O19     O    0.92726   0.55917   0.05729   1.000
    O20     O    0.07275   0.44082   0.94268   1.000
    Zr21    Zr   0.00000   0.50000   0.49999   1.000
    O22     O    0.92728   0.49814   0.44087   1.000
    O23     O    0.07273   0.50185   0.55911   1.000
    Zr24    Zr   0.50001   0.49999   0.50000   1.000
    O25     O    0.57274   0.50184   0.55912   1.000
    O26     O    0.42729   0.49813   0.44087   1.000
    Zr27    Zr   0.00000   1.00000   0.50000   1.000
    O28     O    0.92728   0.94280   0.50191   1.000
    O29     O    0.07273   0.05719   0.49807   1.000
    O30     O    0.49016   0.54076   0.51691   1.000
    O31     O    0.50987   0.45922   0.48308   1.000
    O32     O    0.00983   0.02384   0.54083   1.000
    O33     O    0.99018   0.97608   0.45917   1.000
    O34     O    0.99014   0.48307   0.02377   1.000
    O35     O    0.00987   0.51692   0.97609   1.000
    O36     O    0.50983   0.02385   0.54082   1.000
    O37     O    0.50988   0.51691   0.97608   1.000
    O38     O    0.49014   0.48307   0.02382   1.000
    O39     O    0.99015   0.54077   0.51690   1.000
    O40     O    0.00986   0.45922   0.48308   1.000
    O41     O    0.49018   0.97608   0.45917   1.000
loop_
    _geom_bond_atom_site_label_1
    _geom_bond_atom_site_label_2
    _geom_bond_distance
    _geom_bond_site_symmetry_2
    _ccdc_geom_bond_type
    Zr12   O13       1.70134      .   S
    N5     O13       9.08405      .   S
    Zr12   O14       1.70135  1_545   S
    N11    O14       9.08383      .   S
    Zr15   O16       1.70452      .   S
    N4     O16       9.09114      .   S
    Zr15   O17       1.70452  1_556   S
    N8     O17       9.09118      .   S
    Zr18   O19       1.70447  1_455   S
    N0     O19       9.09109      .   S
    Zr18   O20       1.70472  1_554   S
    N1     O20       9.09139      .   S
    Zr21   O22       1.70266  1_455   S
    N10    O22       9.08708      .   S
    Zr21   O23       1.70261      .   S
    N2     O23       9.08740      .   S
    Zr24   O25       1.70264      .   S
    N9     O25       9.08723      .   S
    Zr24   O26       1.70276      .   S
    N7     O26       9.08727      .   S
    Zr27   O28       1.70126  1_455   S
    N6     O28       9.08417      .   S
    Zr27   O29       1.70143  1_565   S
    N3     O29       9.08389      .   S
    Zr24   O30       0.79119      .   S
    N6     O30       2.31961      .   S
    Zr24   O31       0.79117      .   S
    N3     O31       2.31962      .   S
    Zr27   O32       0.79180  1_565   S
    N4     O32       2.32228  1_655   S
    Zr27   O33       0.79202  1_455   S
    N8     O33       2.32184  1_455   S
    Zr18   O34       0.78812  1_455   S
    N7     O34       2.32227  1_455   S
    Zr18   O35       0.79079  1_554   S
    N9     O35       2.31947  1_655   S
    N1     O36       2.32169      .   S
    Zr12   O36       0.79173      .   S
    Zr15   O37       0.79082      .   S
    N2     O37       2.31943      .   S
    Zr15   O38       0.78930  1_556   S
    N10    O38       2.32109      .   S
    Zr21   O39       0.79119  1_455   S
    N11    O39       2.31991  1_455   S
    Zr21   O40       0.79120      .   S
    N5     O40       2.31958  1_655   S
    N0     O41       2.32187      .   S
    Zr12   O41       0.79201  1_545   S
