# CIF file generated by openbabel 2.4.90, see http://openbabel.sf.net
data_I
_chemical_name_common ''
_cell_length_a 15.556
_cell_length_b 21.857
_cell_length_c 21.842
_cell_angle_alpha 119.901
_cell_angle_beta 89.952
_cell_angle_gamma 90.044
_space_group_name_H-M_alt 'P 1'
_space_group_name_Hall 'P 1'
loop_
    _symmetry_equiv_pos_as_xyz
    x,y,z
loop_
    _atom_site_label
    _atom_site_type_symbol
    _atom_site_fract_x
    _atom_site_fract_y
    _atom_site_fract_z
    _atom_site_occupancy
    N0      N    0.53741   0.87905   0.35523   1.000
    N1      N    0.46261   0.12095   0.64470   1.000
    N2      N    0.46275   0.52386   0.87901   1.000
    N3      N    0.46277   0.35527   0.47625   1.000
    N4      N    0.96262   0.12094   0.64476   1.000
    N5      N    0.96278   0.35527   0.47623   1.000
    N6      N    0.53725   0.64471   0.52376   1.000
    N7      N    0.03726   0.47612   0.12098   1.000
    N8      N    0.03741   0.87904   0.35523   1.000
    N9      N    0.96277   0.52386   0.87901   1.000
    N10     N    0.53726   0.47613   0.12098   1.000
    N11     N    0.03724   0.64472   0.52370   1.000
    Zr12    Zr   0.50000   0.00001   0.50000   1.000
    O13     O    0.47491   0.03092   0.53080   1.000
    O14     O    0.54476   0.01679   0.55084   1.000
    O15     O    0.57274   0.05720   0.49808   1.000
    O16     O    0.52511   0.96909   0.46919   1.000
    O17     O    0.45525   0.98307   0.44915   1.000
    O18     O    0.42728   0.94281   0.50191   1.000
    Zr19    Zr   0.50001   0.49999   0.99999   1.000
    O20     O    0.52510   0.50004   0.03085   1.000
    O21     O    0.45519   0.46610   0.01680   1.000
    O22     O    0.57275   0.44082   0.94270   1.000
    O23     O    0.42727   0.55917   0.05728   1.000
    O24     O    0.54483   0.53388   0.98303   1.000
    O25     O    0.47493   0.49994   0.96913   1.000
    Zr26    Zr   0.00001   0.50000   0.00000   1.000
    O27     O    0.02509   0.50004   0.03086   1.000
    O28     O    0.04482   0.53389   0.98304   1.000
    O29     O    0.95519   0.46610   0.01668   1.000
    O30     O    0.97492   0.49995   0.96915   1.000
    O31     O    0.92726   0.55917   0.05729   1.000
    O32     O    0.07275   0.44082   0.94268   1.000
    Zr33    Zr   0.00000   0.50000   0.49999   1.000
    O34     O    0.02510   0.53081   0.49992   1.000
    O35     O    0.97491   0.46918   0.50006   1.000
    O36     O    0.92728   0.49814   0.44087   1.000
    O37     O    0.04481   0.44927   0.46609   1.000
    O38     O    0.95520   0.55072   0.53388   1.000
    O39     O    0.07273   0.50185   0.55911   1.000
    Zr40    Zr   0.50001   0.49999   0.50000   1.000
    O41     O    0.47492   0.46917   0.50007   1.000
    O42     O    0.57274   0.50184   0.55912   1.000
    O43     O    0.42729   0.49813   0.44087   1.000
    O44     O    0.54482   0.44926   0.46610   1.000
    O45     O    0.52511   0.53081   0.49993   1.000
    O46     O    0.45520   0.55071   0.53390   1.000
    Zr47    Zr   0.00000   1.00000   0.50000   1.000
    O48     O    0.02510   0.96909   0.46919   1.000
    O49     O    0.92728   0.94280   0.50191   1.000
    O50     O    0.07273   0.05719   0.49807   1.000
    O51     O    0.97490   0.03090   0.53080   1.000
    O52     O    0.04475   0.01678   0.55085   1.000
    O53     O    0.95526   0.98307   0.44914   1.000
loop_
    _geom_bond_atom_site_label_1
    _geom_bond_atom_site_label_2
    _geom_bond_distance
    _geom_bond_site_symmetry_2
    _ccdc_geom_bond_type
    Zr12   O13       0.77992      .   S
    N1     O13       2.28404      .   S
    Zr12   O14       1.20305      .   S
    N1     O14       2.52301      .   S
    Zr12   O15       1.70134      .   S
    N5     O15       9.08405      .   S
    Zr12   O16       0.78006  1_545   S
    N0     O16       2.28509      .   S
    Zr12   O17       1.20267  1_545   S
    N0     O17       2.52208      .   S
    Zr12   O18       1.70135  1_545   S
    N11    O18       9.08383      .   S
    Zr19   O20       0.77859  1_556   S
    N10    O20       2.28282      .   S
    Zr19   O21       1.19976  1_556   S
    N10    O21       2.52255      .   S
    Zr19   O22       1.70452      .   S
    N4     O22       9.09114      .   S
    Zr19   O23       1.70452  1_556   S
    N8     O23       9.09118      .   S
    Zr19   O24       1.20180      .   S
    N2     O24       2.51966      .   S
    Zr19   O25       0.77866      .   S
    N2     O25       2.28269      .   S
    Zr26   O27       0.77860      .   S
    N7     O27       2.28275      .   S
    Zr26   O28       1.20182  1_554   S
    N9     O28       2.51959  1_655   S
    Zr26   O29       1.19810  1_455   S
    N7     O29       2.52475  1_455   S
    Zr26   O30       0.77852  1_454   S
    N9     O30       2.28284      .   S
    Zr26   O31       1.70447  1_455   S
    N0     O31       9.09109      .   S
    Zr26   O32       1.70472  1_554   S
    N1     O32       9.09139      .   S
    Zr33   O34       0.77896      .   S
    N11    O34       2.28335      .   S
    Zr33   O35       0.77892  1_455   S
    N5     O35       2.28309      .   S
    Zr33   O36       1.70266  1_455   S
    N10    O36       9.08708      .   S
    Zr33   O37       1.20214      .   S
    N5     O37       2.51958  1_655   S
    Zr33   O38       1.20205  1_455   S
    N11    O38       2.51992  1_455   S
    Zr33   O39       1.70261      .   S
    N2     O39       9.08740      .   S
    Zr40   O41       0.77893      .   S
    N3     O41       2.28308      .   S
    Zr40   O42       1.70264      .   S
    N9     O42       9.08723      .   S
    Zr40   O43       1.70276      .   S
    N7     O43       9.08727      .   S
    Zr40   O44       1.20213      .   S
    N3     O44       2.51969      .   S
    Zr40   O45       0.77897      .   S
    N6     O45       2.28307      .   S
    Zr40   O46       1.20213      .   S
    N6     O46       2.51967      .   S
    Zr47   O48       0.78005      .   S
    N8     O48       2.28507      .   S
    Zr47   O49       1.70126  1_455   S
    N6     O49       9.08417      .   S
    Zr47   O50       1.70143  1_565   S
    N3     O50       9.08389      .   S
    Zr47   O51       0.77987  1_465   S
    N4     O51       2.28491      .   S
    Zr47   O52       1.20317  1_565   S
    N4     O52       2.52332  1_655   S
    Zr47   O53       1.20266  1_455   S
    N8     O53       2.52202  1_455   S
