# CIF file generated by openbabel 2.4.90, see http://openbabel.sf.net
data_I
_chemical_name_common ''
_cell_length_a 15.556
_cell_length_b 21.857
_cell_length_c 21.842
_cell_angle_alpha 119.901
_cell_angle_beta 89.952
_cell_angle_gamma 90.044
_space_group_name_H-M_alt 'P 1'
_space_group_name_Hall 'P 1'
loop_
    _symmetry_equiv_pos_as_xyz
    x,y,z
loop_
    _atom_site_label
    _atom_site_type_symbol
    _atom_site_fract_x
    _atom_site_fract_y
    _atom_site_fract_z
    _atom_site_occupancy
    Zr0     Zr   0.00000   0.50000   0.49999   1.000
    Zr1     Zr   0.50001   0.49999   0.50000   1.000
    Zr2     Zr   0.00000   1.00000   0.50000   1.000
    Zr3     Zr   0.50000   0.00001   0.50000   1.000
    Zr4     Zr   0.00001   0.50000   0.00000   1.000
    Zr5     Zr   0.50001   0.49999   0.99999   1.000
    N6      N    0.53741   0.87905   0.35523   1.000
    O7      O    0.41050   0.96614   0.39829   1.000
    O8      O    0.55021   0.93818   0.43839   1.000
    O9      O    0.85452   0.61834   0.11457   1.000
    N10     N    0.46261   0.12095   0.64470   1.000
    O11     O    0.58951   0.03357   0.60169   1.000
    O12     O    0.44981   0.06182   0.56161   1.000
    O13     O    0.14549   0.38165   0.88537   1.000
    N14     N    0.46275   0.52386   0.87901   1.000
    O15     O    0.58965   0.56777   0.96607   1.000
    O16     O    0.44984   0.49990   0.93827   1.000
    O17     O    0.14545   0.50370   0.61822   1.000
    N18     N    0.46277   0.35527   0.47625   1.000
    O19     O    0.44982   0.43836   0.50014   1.000
    O20     O    0.58963   0.39854   0.43220   1.000
    O21     O    0.14546   0.11439   0.49614   1.000
    N22     N    0.96262   0.12094   0.64476   1.000
    O23     O    0.08951   0.03356   0.60170   1.000
    O24     O    0.94981   0.06181   0.56161   1.000
    O25     O    0.64550   0.38164   0.88542   1.000
    N26     N    0.96278   0.35527   0.47623   1.000
    O27     O    0.08962   0.39855   0.43219   1.000
    O28     O    0.94982   0.43836   0.50013   1.000
    O29     O    0.64547   0.11439   0.49616   1.000
    N30     N    0.53725   0.64471   0.52376   1.000
    O31     O    0.41039   0.60143   0.56780   1.000
    O32     O    0.55020   0.56162   0.49985   1.000
    O33     O    0.85455   0.88560   0.50381   1.000
    N34     N    0.03726   0.47612   0.12098   1.000
    O35     O    0.91038   0.43221   0.03337   1.000
    O36     O    0.05017   0.50009   0.06171   1.000
    O37     O    0.35457   0.49628   0.38175   1.000
    N38     N    0.03741   0.87904   0.35523   1.000
    O39     O    0.05021   0.93817   0.43839   1.000
    O40     O    0.91051   0.96614   0.39829   1.000
    O41     O    0.35452   0.61834   0.11456   1.000
    N42     N    0.96277   0.52386   0.87901   1.000
    O43     O    0.08964   0.56778   0.96608   1.000
    O44     O    0.94984   0.49991   0.93830   1.000
    O45     O    0.64546   0.50370   0.61824   1.000
    N46     N    0.53726   0.47613   0.12098   1.000
    O47     O    0.55018   0.50009   0.06170   1.000
    O48     O    0.41037   0.43222   0.03361   1.000
    O49     O    0.85456   0.49628   0.38175   1.000
    N50     N    0.03724   0.64472   0.52370   1.000
    O51     O    0.91040   0.60144   0.56777   1.000
    O52     O    0.05020   0.56163   0.49985   1.000
    O53     O    0.35455   0.88561   0.50383   1.000
loop_
    _geom_bond_atom_site_label_1
    _geom_bond_atom_site_label_2
    _geom_bond_distance
    _geom_bond_site_symmetry_2
    _ccdc_geom_bond_type
    N6     O7        2.57355      .   S
    Zr3    O7        2.40533  1_545   S
    N6     O8        1.63366      .   S
    Zr3    O8        1.56011  1_545   S
    N6     O9        7.38728      .   S
    Zr4    O9        3.40895  1_455   S
    N10    O11       2.57705      .   S
    Zr3    O11       2.40610      .   S
    N10    O12       1.63266      .   S
    Zr3    O12       1.55984      .   S
    N10    O13       7.38735      .   S
    Zr4    O13       3.40945  1_554   S
    N14    O15       2.57248      .   S
    Zr5    O15       2.40359      .   S
    N14    O16       1.63268      .   S
    Zr5    O16       1.55732      .   S
    N14    O17       7.38548      .   S
    Zr0    O17       3.40523      .   S
    N18    O19       1.63292      .   S
    Zr1    O19       1.55786      .   S
    N18    O20       2.57215      .   S
    Zr1    O20       2.40426      .   S
    N18    O21       7.38309      .   S
    Zr2    O21       3.40286  1_565   S
    N22    O23       2.57686  1_655   S
    Zr2    O23       2.40633  1_565   S
    N22    O24       1.63364      .   S
    Zr2    O24       1.55974  1_465   S
    N22    O25       7.38729      .   S
    Zr5    O25       3.40903      .   S
    N26    O27       2.57195  1_655   S
    Zr0    O27       2.40428      .   S
    N26    O28       1.63292      .   S
    Zr0    O28       1.55784  1_455   S
    N26    O29       7.38335      .   S
    Zr3    O29       3.40267      .   S
    N30    O31       2.57208      .   S
    Zr1    O31       2.40426      .   S
    N30    O32       1.63288      .   S
    Zr1    O32       1.55795      .   S
    N30    O33       7.38355      .   S
    Zr2    O33       3.40253  1_455   S
    N34    O35       2.57902  1_455   S
    Zr4    O35       2.39620  1_455   S
    N34    O36       1.63281      .   S
    Zr4    O36       1.55719      .   S
    N34    O37       7.38521      .   S
    Zr1    O37       3.40551      .   S
    N38    O39       1.63365      .   S
    Zr2    O39       1.56010      .   S
    N38    O40       2.57345  1_455   S
    Zr2    O40       2.40532  1_455   S
    N38    O41       7.38733      .   S
    Zr5    O41       3.40904  1_556   S
    N42    O43       2.57236  1_655   S
    Zr4    O43       2.40364  1_554   S
    N42    O44       1.63297      .   S
    Zr4    O44       1.55703  1_454   S
    N42    O45       7.38529      .   S
    Zr1    O45       3.40529      .   S
    N46    O47       1.63290      .   S
    Zr5    O47       1.55717  1_556   S
    N46    O48       2.57620      .   S
    Zr5    O48       2.39952  1_556   S
    N46    O49       7.38511      .   S
    Zr0    O49       3.40533  1_455   S
    N50    O51       2.57216  1_455   S
    Zr0    O51       2.40409  1_455   S
    N50    O52       1.63311      .   S
    Zr0    O52       1.55791      .   S
    N50    O53       7.38311      .   S
    Zr3    O53       3.40269  1_545   S
