# CIF file generated by openbabel 2.4.90, see http://openbabel.sf.net
data_I
_chemical_name_common ''
_cell_length_a 21.028
_cell_length_b 18.14
_cell_length_c 18.136
_cell_angle_alpha 119.953
_cell_angle_beta 89.998
_cell_angle_gamma 89.995
_space_group_name_H-M_alt 'P 1'
_space_group_name_Hall 'P 1'
loop_
    _symmetry_equiv_pos_as_xyz
    x,y,z
loop_
    _atom_site_label
    _atom_site_type_symbol
    _atom_site_fract_x
    _atom_site_fract_y
    _atom_site_fract_z
    _atom_site_occupancy
    Zn0     Zn   0.77786   0.55052   0.07500   1.000
    Zn1     Zn   0.11120   0.52531   0.44960   1.000
    Zn2     Zn   0.61119   0.52526   0.44951   1.000
    Zn3     Zn   0.44453   0.92436   0.47506   1.000
    Zn4     Zn   0.94452   0.92433   0.47511   1.000
    Zn5     Zn   0.02785   0.44923   0.92431   1.000
    Zn6     Zn   0.52785   0.44938   0.92426   1.000
    Zn7     Zn   0.36119   0.47471   0.55044   1.000
    Zn8     Zn   0.86119   0.47459   0.55034   1.000
    Zn9     Zn   0.19451   0.07558   0.52495   1.000
    Zn10    Zn   0.69452   0.07553   0.52476   1.000
    Zn11    Zn   0.27785   0.55060   0.07570   1.000
    Br12    Br   0.29162   0.45921   0.13390   1.000
    Br13    Br   0.79151   0.45908   0.13386   1.000
    Br14    Br   0.12462   0.67479   0.54126   1.000
    Br15    Br   0.62472   0.67473   0.54110   1.000
    Br16    Br   0.45812   0.86609   0.32546   1.000
    Br17    Br   0.95825   0.86597   0.32552   1.000
    Br18    Br   0.04156   0.54060   0.86606   1.000
    Br19    Br   0.54157   0.54077   0.86604   1.000
    Br20    Br   0.37467   0.32524   0.45877   1.000
    Br21    Br   0.87469   0.32511   0.45872   1.000
    Br22    Br   0.20819   0.13387   0.67453   1.000
    Br23    Br   0.70818   0.13389   0.67436   1.000
loop_
    _geom_bond_atom_site_label_1
    _geom_bond_atom_site_label_2
    _geom_bond_distance
    _geom_bond_site_symmetry_2
    _ccdc_geom_bond_type
    Zn0    Br13      2.39612      .   S
    Zn11   Br12      2.38611      .   S
    Br16   Zn3       2.38670      .   S
    Br17   Zn4       2.38665      .   S
    Zn2    Br15      2.38637      .   S
    Zn1    Br14      2.38630      .   S
    Br21   Zn8       2.38632      .   S
    Br20   Zn7       2.38635      .   S
    Zn10   Br23      2.38672      .   S
    Zn9    Br22      2.38655      .   S
    Br19   Zn6       2.38626      .   S
    Br18   Zn5       2.38644      .   S
