# CIF file generated by openbabel 2.4.90, see http://openbabel.sf.net
data_I
_chemical_name_common ''
_cell_length_a 21.028
_cell_length_b 18.14
_cell_length_c 18.136
_cell_angle_alpha 119.953
_cell_angle_beta 89.998
_cell_angle_gamma 89.995
_space_group_name_H-M_alt 'P 1'
_space_group_name_Hall 'P 1'
loop_
    _symmetry_equiv_pos_as_xyz
    x,y,z
loop_
    _atom_site_label
    _atom_site_type_symbol
    _atom_site_fract_x
    _atom_site_fract_y
    _atom_site_fract_z
    _atom_site_occupancy
    N0      N    0.78230   0.46332   0.84241   1.000
    N1      N    0.61568   0.37876   0.53625   1.000
    N2      N    0.44894   0.15749   0.62079   1.000
    N3      N    0.94893   0.15740   0.62084   1.000
    N4      N    0.03227   0.53645   0.15754   1.000
    N5      N    0.53227   0.53659   0.15752   1.000
    N6      N    0.36571   0.62122   0.46366   1.000
    N7      N    0.86567   0.62112   0.46359   1.000
    N8      N    0.19893   0.84246   0.37919   1.000
    N9      N    0.69899   0.84245   0.37906   1.000
    N10     N    0.28227   0.46340   0.84246   1.000
    N11     N    0.11568   0.37879   0.53623   1.000
    Zr12    Zr   0.36793   0.39997   0.50460   1.000
    O13     O    0.34222   0.44012   0.61649   1.000
    O14     O    0.44069   0.41633   0.52818   1.000
    Zr15    Zr   0.45132   0.89523   0.40026   1.000
    O16     O    0.52405   0.88814   0.41669   1.000
    O17     O    0.42562   0.82365   0.44043   1.000
    Zr18    Zr   0.03471   0.49491   0.89518   1.000
    O19     O    0.00894   0.38316   0.82352   1.000
    O20     O    0.10739   0.47141   0.88813   1.000
    Zr21    Zr   0.78468   0.50480   0.10443   1.000
    O22     O    0.75895   0.61660   0.17618   1.000
    O23     O    0.85739   0.52836   0.11161   1.000
    Zr24    Zr   0.28473   0.50491   0.10480   1.000
    O25     O    0.25894   0.61667   0.17649   1.000
    O26     O    0.35740   0.52847   0.11186   1.000
    Zr27    Zr   0.70135   0.10471   0.59956   1.000
    O28     O    0.67562   0.17628   0.55942   1.000
    O29     O    0.77405   0.11176   0.58313   1.000
    Zr30    Zr   0.86794   0.39985   0.50453   1.000
    O31     O    0.94069   0.41626   0.52761   1.000
    O32     O    0.84223   0.44001   0.61642   1.000
    Zr33    Zr   0.20135   0.10472   0.59974   1.000
    O34     O    0.17562   0.17632   0.55955   1.000
    O35     O    0.27405   0.11180   0.58325   1.000
    Zr36    Zr   0.11791   0.60005   0.49543   1.000
    O37     O    0.19069   0.58369   0.47183   1.000
    O38     O    0.09221   0.55986   0.38353   1.000
    Zr39    Zr   0.61796   0.60000   0.49530   1.000
    O40     O    0.59223   0.55986   0.38345   1.000
    O41     O    0.69070   0.58360   0.47172   1.000
    Zr42    Zr   0.95138   0.89515   0.40031   1.000
    O43     O    0.02406   0.88811   0.41679   1.000
    O44     O    0.92563   0.82358   0.44043   1.000
    Zr45    Zr   0.53471   0.49508   0.89515   1.000
    O46     O    0.50894   0.38330   0.82347   1.000
    O47     O    0.60740   0.47150   0.88808   1.000
    O48     O    0.69325   0.02088   0.51928   1.000
    O49     O    0.60989   0.51949   0.49856   1.000
    O50     O    0.10987   0.51953   0.49864   1.000
    O51     O    0.52658   0.49853   0.97900   1.000
    O52     O    0.02658   0.49838   0.97903   1.000
    O53     O    0.27659   0.50146   0.02096   1.000
    O54     O    0.94325   0.97898   0.48061   1.000
    O55     O    0.77657   0.50137   0.02067   1.000
    O56     O    0.85988   0.48038   0.50128   1.000
    O57     O    0.35989   0.48049   0.50136   1.000
    O58     O    0.44322   0.97905   0.48056   1.000
    O59     O    0.19323   0.02090   0.51944   1.000
loop_
    _geom_bond_atom_site_label_1
    _geom_bond_atom_site_label_2
    _geom_bond_distance
    _geom_bond_site_symmetry_2
    _ccdc_geom_bond_type
    Zr12   O13       1.86132      .   S
    N10    O13       4.10279      .   S
    Zr12   O14       1.57648      .   S
    N1     O14       3.75827      .   S
    Zr15   O16       1.57559      .   S
    N9     O16       3.75754      .   S
    Zr15   O17       1.85827      .   S
    N6     O17       4.09817      .   S
    Zr18   O19       1.86054      .   S
    N3     O19       4.10410  1_655   S
    Zr18   O20       1.57476      .   S
    N10    O20       3.75622      .   S
    Zr21   O22       1.86110      .   S
    N9     O22       4.10590      .   S
    Zr21   O23       1.57521      .   S
    N4     O23       3.75737  1_455   S
    Zr24   O25       1.86075      .   S
    N8     O25       4.10431      .   S
    Zr24   O26       1.57471      .   S
    N5     O26       3.75587      .   S
    Zr27   O28       1.85804      .   S
    N1     O28       4.09820      .   S
    Zr27   O29       1.57480      .   S
    N3     O29       3.75663      .   S
    Zr30   O31       1.57484      .   S
    N11    O31       3.75916  1_455   S
    Zr30   O32       1.86135      .   S
    N0     O32       4.10291      .   S
    Zr33   O34       1.85896      .   S
    N11    O34       4.09985      .   S
    Zr33   O35       1.57512      .   S
    N2     O35       3.75673      .   S
    Zr36   O37       1.57693      .   S
    N6     O37       3.75918      .   S
    Zr36   O38       1.86132      .   S
    N4     O38       4.10242      .   S
    Zr39   O40       1.86104      .   S
    N5     O40       4.10242      .   S
    Zr39   O41       1.57619      .   S
    N7     O41       3.75793      .   S
    Zr42   O43       1.57457  1_655   S
    N8     O43       3.75594      .   S
    Zr42   O44       1.85781      .   S
    N7     O44       4.09814      .   S
    Zr45   O46       1.86088      .   S
    N2     O46       4.10466      .   S
    Zr45   O47       1.57511      .   S
    N0     O47       3.75638      .   S
    Zr27   O48       1.50018      .   S
    N9     O48       2.95607  1_565   S
    Zr39   O49       1.50049      .   S
    N1     O49       2.95656      .   S
    Zr36   O50       1.50010      .   S
    N11    O50       2.95552      .   S
    Zr45   O51       1.50023      .   S
    N5     O51       2.95654  1_554   S
    Zr18   O52       1.50007      .   S
    N4     O52       2.95627  1_554   S
    Zr24   O53       1.50008      .   S
    N10    O53       2.95627  1_556   S
    Zr42   O54       1.50029      .   S
    N3     O54       2.95608  1_545   S
    N0     O55       2.95206  1_556   S
    Zr21   O55       1.49864      .   S
    N7     O56       2.95693      .   S
    Zr30   O56       1.50061      .   S
    N6     O57       2.95669      .   S
    Zr12   O57       1.50037      .   S
    N2     O58       2.95632  1_545   S
    Zr15   O58       1.50017      .   S
    N8     O59       2.95638  1_565   S
    Zr33   O59       1.50033      .   S
