# CIF file generated by openbabel 2.4.90, see http://openbabel.sf.net
data_I
_chemical_name_common ''
_cell_length_a 21.028
_cell_length_b 18.14
_cell_length_c 18.136
_cell_angle_alpha 119.953
_cell_angle_beta 89.998
_cell_angle_gamma 89.995
_space_group_name_H-M_alt 'P 1'
_space_group_name_Hall 'P 1'
loop_
    _symmetry_equiv_pos_as_xyz
    x,y,z
loop_
    _atom_site_label
    _atom_site_type_symbol
    _atom_site_fract_x
    _atom_site_fract_y
    _atom_site_fract_z
    _atom_site_occupancy
    Zr0     Zr   0.27785   0.55060   0.07570   1.000
    Zr1     Zr   0.77786   0.55052   0.07500   1.000
    Zr2     Zr   0.11120   0.52531   0.44960   1.000
    Zr3     Zr   0.61119   0.52526   0.44951   1.000
    Zr4     Zr   0.44453   0.92436   0.47506   1.000
    Zr5     Zr   0.94452   0.92433   0.47511   1.000
    Zr6     Zr   0.02785   0.44923   0.92431   1.000
    Zr7     Zr   0.52785   0.44938   0.92426   1.000
    Zr8     Zr   0.36119   0.47471   0.55044   1.000
    Zr9     Zr   0.86119   0.47459   0.55034   1.000
    Zr10    Zr   0.19451   0.07558   0.52495   1.000
    Zr11    Zr   0.69452   0.07553   0.52476   1.000
    Zr12    Zr   0.29162   0.45921   0.13390   1.000
    Zr13    Zr   0.79151   0.45908   0.13386   1.000
    Zr14    Zr   0.12462   0.67479   0.54126   1.000
    Zr15    Zr   0.62472   0.67473   0.54110   1.000
    Zr16    Zr   0.45812   0.86609   0.32546   1.000
    Zr17    Zr   0.95825   0.86597   0.32552   1.000
    Zr18    Zr   0.04156   0.54060   0.86606   1.000
    Zr19    Zr   0.54157   0.54077   0.86604   1.000
    Zr20    Zr   0.37467   0.32524   0.45877   1.000
    Zr21    Zr   0.87469   0.32511   0.45872   1.000
    Zr22    Zr   0.20819   0.13387   0.67453   1.000
    Zr23    Zr   0.70818   0.13389   0.67436   1.000
    O24     O    0.78468   0.50480   0.10443   1.000
    O25     O    0.28473   0.50491   0.10480   1.000
    O26     O    0.45132   0.89523   0.40026   1.000
    O27     O    0.95138   0.89515   0.40031   1.000
    O28     O    0.61796   0.60000   0.49530   1.000
    O29     O    0.11791   0.60005   0.49543   1.000
    O30     O    0.86794   0.39985   0.50453   1.000
    O31     O    0.36793   0.39997   0.50460   1.000
    O32     O    0.70135   0.10471   0.59956   1.000
    O33     O    0.20135   0.10472   0.59974   1.000
    O34     O    0.53471   0.49508   0.89515   1.000
    O35     O    0.03471   0.49491   0.89518   1.000
    N36     N    0.78230   0.46332   0.84241   1.000
    O37     O    0.68009   0.44792   0.88102   1.000
    O38     O    0.75501   0.49895   0.94777   1.000
    O39     O    0.78192   0.49692   0.92606   1.000
    O40     O    0.81652   0.48016   0.72831   1.000
    N41     N    0.61568   0.37876   0.53625   1.000
    O42     O    0.64988   0.24786   0.51928   1.000
    O43     O    0.51346   0.43269   0.55175   1.000
    O44     O    0.58837   0.44883   0.50085   1.000
    O45     O    0.61529   0.42911   0.50279   1.000
    N46     N    0.44894   0.15749   0.62079   1.000
    O47     O    0.44857   0.07373   0.57069   1.000
    O48     O    0.48317   0.27153   0.75179   1.000
    O49     O    0.34674   0.11887   0.56677   1.000
    O50     O    0.42167   0.05201   0.55101   1.000
    N51     N    0.94893   0.15740   0.62084   1.000
    O52     O    0.94855   0.07367   0.57075   1.000
    O53     O    0.98317   0.27141   0.75185   1.000
    O54     O    0.84675   0.11880   0.56671   1.000
    O55     O    0.92167   0.05195   0.55104   1.000
    N56     N    0.03227   0.53645   0.15754   1.000
    O57     O    0.03190   0.50284   0.07374   1.000
    O58     O    0.06652   0.51966   0.27163   1.000
    O59     O    0.93009   0.55191   0.11879   1.000
    O60     O    0.00500   0.50085   0.05203   1.000
    N61     N    0.53227   0.53659   0.15752   1.000
    O62     O    0.53189   0.50299   0.07371   1.000
    O63     O    0.56650   0.51972   0.27159   1.000
    O64     O    0.43007   0.55203   0.11892   1.000
    O65     O    0.50500   0.50097   0.05199   1.000
    N66     N    0.36571   0.62122   0.46366   1.000
    O67     O    0.36531   0.57085   0.49713   1.000
    O68     O    0.39991   0.75208   0.48059   1.000
    O69     O    0.26348   0.56733   0.44823   1.000
    O70     O    0.33839   0.55116   0.49910   1.000
    N71     N    0.86567   0.62112   0.46359   1.000
    O72     O    0.86528   0.57075   0.49705   1.000
    O73     O    0.89987   0.75201   0.48055   1.000
    O74     O    0.76345   0.56721   0.44813   1.000
    O75     O    0.83837   0.55105   0.49901   1.000
    N76     N    0.19893   0.84246   0.37919   1.000
    O77     O    0.19855   0.92621   0.42930   1.000
    O78     O    0.23316   0.72844   0.24818   1.000
    O79     O    0.09674   0.88108   0.43326   1.000
    O80     O    0.17166   0.94794   0.44898   1.000
    N81     N    0.69899   0.84245   0.37906   1.000
    O82     O    0.69859   0.92619   0.42914   1.000
    O83     O    0.73321   0.72840   0.24792   1.000
    O84     O    0.59678   0.88105   0.43313   1.000
    O85     O    0.67170   0.94791   0.44884   1.000
    N86     N    0.28227   0.46340   0.84246   1.000
    O87     O    0.18008   0.44790   0.88107   1.000
    O88     O    0.25499   0.49901   0.94798   1.000
    O89     O    0.28189   0.49700   0.92626   1.000
    O90     O    0.31651   0.48027   0.72838   1.000
    N91     N    0.11568   0.37879   0.53623   1.000
    O92     O    0.01345   0.43266   0.55070   1.000
    O93     O    0.08838   0.44886   0.50086   1.000
    O94     O    0.11530   0.42916   0.50283   1.000
    O95     O    0.14988   0.24791   0.51937   1.000
loop_
    _geom_bond_atom_site_label_1
    _geom_bond_atom_site_label_2
    _geom_bond_distance
    _geom_bond_site_symmetry_2
    _ccdc_geom_bond_type
    Zr1    O24       1.19806      .   S
    Zr13   O24       1.19806      .   S
    Zr0    O25       1.19305      .   S
    Zr12   O25       1.19305      .   S
    Zr16   O26       1.19335      .   S
    Zr4    O26       1.19335      .   S
    Zr17   O27       1.19333      .   S
    Zr5    O27       1.19333      .   S
    Zr3    O28       1.19319      .   S
    Zr15   O28       1.19319      .   S
    Zr2    O29       1.19315      .   S
    Zr14   O29       1.19315      .   S
    Zr21   O30       1.19316      .   S
    Zr9    O30       1.19316      .   S
    Zr20   O31       1.19318      .   S
    Zr8    O31       1.19318      .   S
    Zr11   O32       1.19336      .   S
    Zr23   O32       1.19336      .   S
    Zr10   O33       1.19327      .   S
    Zr22   O33       1.19327      .   S
    Zr19   O34       1.19313      .   S
    Zr7    O34       1.19313      .   S
    Zr18   O35       1.19322      .   S
    Zr6    O35       1.19322      .   S
    N36    O37       2.32002      .   S
    Zr7    O37       3.29290      .   S
    N36    O38       1.77898      .   S
    Zr1    O38       2.06752  1_554   S
    N36    O39       1.32276      .   S
    Zr1    O39       2.37197  1_554   S
    N36    O40       2.35036      .   S
    Zr9    O40       3.31432      .   S
    N41    O42       2.34948      .   S
    Zr11   O42       3.31247      .   S
    N41    O43       2.31984      .   S
    Zr8    O43       3.29403      .   S
    N41    O44       1.78124      .   S
    Zr3    O44       2.07562      .   S
    N41    O45       1.32520      .   S
    Zr3    O45       2.38036      .   S
    N46    O47       1.32497      .   S
    Zr4    O47       2.38004  1_565   S
    N46    O48       2.35256      .   S
    Zr7    O48       3.31650      .   S
    N46    O49       2.32033      .   S
    Zr10   O49       3.29311      .   S
    N46    O50       1.78151      .   S
    Zr4    O50       2.07483  1_565   S
    N51    O52       1.32459      .   S
    Zr5    O52       2.37955  1_565   S
    N51    O53       2.35245      .   S
    Zr6    O53       3.31610  1_455   S
    N51    O54       2.32061      .   S
    Zr11   O54       3.29329      .   S
    N51    O55       1.78120      .   S
    Zr5    O55       2.07430  1_565   S
    N56    O57       1.32535      .   S
    Zr6    O57       2.38019  1_556   S
    N56    O58       2.34993      .   S
    Zr2    O58       3.31363      .   S
    N56    O59       2.32089  1_455   S
    Zr1    O59       3.29518      .   S
    N56    O60       1.78144      .   S
    Zr6    O60       2.07539  1_556   S
    N61    O62       1.32544      .   S
    Zr7    O62       2.38061  1_556   S
    N61    O63       2.35022      .   S
    Zr3    O63       3.31390      .   S
    N61    O64       2.31998      .   S
    Zr0    O64       3.29264      .   S
    N61    O65       1.78167      .   S
    Zr7    O65       2.07568  1_556   S
    N66    O67       1.32549      .   S
    Zr8    O67       2.38068      .   S
    N66    O68       2.34918      .   S
    Zr4    O68       3.31222      .   S
    N66    O69       2.32015      .   S
    Zr2    O69       3.29460      .   S
    N66    O70       1.78151      .   S
    Zr8    O70       2.07593      .   S
    N71    O72       1.32547      .   S
    Zr9    O72       2.38078      .   S
    N71    O73       2.34952      .   S
    Zr5    O73       3.31223      .   S
    N71    O74       2.31987      .   S
    Zr3    O74       3.29394      .   S
    N71    O75       1.78147      .   S
    Zr9    O75       2.07602      .   S
    N76    O77       1.32494      .   S
    Zr10   O77       2.37999  1_545   S
    N76    O78       2.35233      .   S
    Zr0    O78       3.31624      .   S
    N76    O79       2.32022      .   S
    Zr5    O79       3.29274  1_655   S
    N76    O80       1.78140      .   S
    Zr10   O80       2.07482  1_545   S
    N81    O82       1.32471      .   S
    Zr11   O82       2.37956  1_545   S
    N81    O83       2.35378      .   S
    Zr1    O83       3.32012      .   S
    N81    O84       2.32057      .   S
    Zr4    O84       3.29372      .   S
    N81    O85       1.78127      .   S
    Zr11   O85       2.07432  1_545   S
    N86    O87       2.32024      .   S
    Zr6    O87       3.29296      .   S
    N86    O88       1.78159      .   S
    Zr0    O88       2.07551  1_554   S
    N86    O89       1.32535      .   S
    Zr0    O89       2.38043  1_554   S
    N86    O90       2.35032      .   S
    Zr8    O90       3.31399      .   S
    N91    O92       2.32128      .   S
    Zr9    O92       3.29160  1_655   S
    N91    O93       1.78059      .   S
    Zr2    O93       2.07495      .   S
    N91    O94       1.32447      .   S
    Zr2    O94       2.37972      .   S
    N91    O95       2.34999      .   S
    Zr10   O95       3.31350      .   S
