# CIF file generated by openbabel 2.4.90, see http://openbabel.sf.net
data_I
_chemical_name_common ''
_cell_length_a 21.028
_cell_length_b 18.14
_cell_length_c 18.136
_cell_angle_alpha 119.953
_cell_angle_beta 89.998
_cell_angle_gamma 89.995
_space_group_name_H-M_alt 'P 1'
_space_group_name_Hall 'P 1'
loop_
    _symmetry_equiv_pos_as_xyz
    x,y,z
loop_
    _atom_site_label
    _atom_site_type_symbol
    _atom_site_fract_x
    _atom_site_fract_y
    _atom_site_fract_z
    _atom_site_occupancy
    C0      C    0.27785   0.55060   0.07570   1.000
    C1      C    0.77786   0.55052   0.07500   1.000
    C2      C    0.11120   0.52531   0.44960   1.000
    C3      C    0.61119   0.52526   0.44951   1.000
    C4      C    0.44453   0.92436   0.47506   1.000
    C5      C    0.94452   0.92433   0.47511   1.000
    C6      C    0.02785   0.44923   0.92431   1.000
    C7      C    0.52785   0.44938   0.92426   1.000
    C8      C    0.36119   0.47471   0.55044   1.000
    C9      C    0.86119   0.47459   0.55034   1.000
    C10     C    0.19451   0.07558   0.52495   1.000
    C11     C    0.69452   0.07553   0.52476   1.000
    C12     C    0.34605   0.37502   0.79549   1.000
    C13     C    0.84605   0.37490   0.79544   1.000
    C14     C    0.28190   0.37437   0.73148   1.000
    C15     C    0.78191   0.37430   0.73145   1.000
    C16     C    0.30626   0.27820   0.72595   1.000
    C17     C    0.80622   0.27811   0.72592   1.000
    C18     C    0.20771   0.32633   0.80610   1.000
    C19     C    0.70769   0.32632   0.80613   1.000
    C20     C    0.28412   0.25222   0.84970   1.000
    C21     C    0.78407   0.25215   0.84966   1.000
    C22     C    0.23816   0.32590   0.93788   1.000
    C23     C    0.73810   0.32582   0.93783   1.000
    C24     C    0.31757   0.35092   0.92835   1.000
    C25     C    0.81752   0.35083   0.92834   1.000
    C26     C    0.21322   0.47416   0.85062   1.000
    C27     C    0.71330   0.47415   0.85059   1.000
    C28     C    0.32943   0.62701   0.98080   1.000
    C29     C    0.82959   0.62685   0.98076   1.000
    C30     C    0.24704   0.62341   0.95623   1.000
    C31     C    0.74720   0.62340   0.95626   1.000
    C32     C    0.40824   0.53646   0.85444   1.000
    C33     C    0.90828   0.53610   0.85424   1.000
    C34     C    0.21598   0.59407   0.81372   1.000
    C35     C    0.71609   0.59420   0.81380   1.000
    C36     C    0.24781   0.54971   0.66455   1.000
    C37     C    0.74785   0.54981   0.66460   1.000
    C38     C    0.43149   0.49525   0.70442   1.000
    C39     C    0.93146   0.49487   0.70421   1.000
    C40     C    0.32828   0.47917   0.92819   1.000
    C41     C    0.82832   0.47906   0.92819   1.000
    C42     C    0.17955   0.42031   0.62489   1.000
    C43     C    0.67959   0.42026   0.62475   1.000
    C44     C    0.11554   0.35670   0.62538   1.000
    C45     C    0.61558   0.35669   0.62532   1.000
    C46     C    0.13971   0.44726   0.72165   1.000
    C47     C    0.63980   0.44726   0.72155   1.000
    C48     C    0.04109   0.47905   0.67339   1.000
    C49     C    0.54115   0.47908   0.67337   1.000
    C50     C    0.11722   0.59688   0.74773   1.000
    C51     C    0.61731   0.59687   0.74762   1.000
    C52     C    0.07123   0.61137   0.67400   1.000
    C53     C    0.57131   0.61135   0.67389   1.000
    C54     C    0.15072   0.57718   0.64910   1.000
    C55     C    0.65079   0.57711   0.64895   1.000
    C56     C    0.04680   0.37603   0.52553   1.000
    C57     C    0.54679   0.37602   0.52551   1.000
    C58     C    0.16307   0.35403   0.37280   1.000
    C59     C    0.66294   0.35396   0.37271   1.000
    C60     C    0.08067   0.33296   0.37622   1.000
    C61     C    0.58055   0.33294   0.37617   1.000
    C62     C    0.24169   0.31795   0.46350   1.000
    C63     C    0.74167   0.31778   0.46313   1.000
    C64     C    0.04948   0.21962   0.40534   1.000
    C65     C    0.54939   0.21965   0.40539   1.000
    C66     C    0.08119   0.11471   0.44960   1.000
    C67     C    0.58114   0.11473   0.44969   1.000
    C68     C    0.26481   0.20905   0.50466   1.000
    C69     C    0.76484   0.20886   0.50424   1.000
    C70     C    0.16174   0.44890   0.52073   1.000
    C71     C    0.66172   0.44879   0.52058   1.000
    C72     C    0.01274   0.20425   0.57915   1.000
    C73     C    0.51271   0.20436   0.57905   1.000
    C74     C    0.44860   0.26841   0.64240   1.000
    C75     C    0.94863   0.26834   0.64245   1.000
    C76     C    0.47288   0.27389   0.55160   1.000
    C77     C    0.97300   0.27380   0.55174   1.000
    C78     C    0.37433   0.19378   0.51989   1.000
    C79     C    0.87441   0.19374   0.51986   1.000
    C80     C    0.45065   0.15013   0.40216   1.000
    C81     C    0.95080   0.15002   0.40219   1.000
    C82     C    0.40468   0.06202   0.38791   1.000
    C83     C    0.90479   0.06194   0.38792   1.000
    C84     C    0.48412   0.07149   0.42233   1.000
    C85     C    0.98421   0.07139   0.42243   1.000
    C86     C    0.37991   0.14937   0.62338   1.000
    C87     C    0.87986   0.14935   0.62338   1.000
    C88     C    0.49624   0.01925   0.64621   1.000
    C89     C    0.99606   0.01912   0.64629   1.000
    C90     C    0.41384   0.04377   0.66722   1.000
    C91     C    0.91367   0.04375   0.66725   1.000
    C92     C    0.07487   0.14555   0.68200   1.000
    C93     C    0.57491   0.14581   0.68179   1.000
    C94     C    0.38276   0.18608   0.78038   1.000
    C95     C    0.88263   0.18613   0.78030   1.000
    C96     C    0.41453   0.33516   0.88522   1.000
    C97     C    0.91448   0.33516   0.88517   1.000
    C98     C    0.09814   0.29541   0.79085   1.000
    C99     C    0.59811   0.29570   0.79063   1.000
    C100    C    0.49497   0.07181   0.55087   1.000
    C101    C    0.99494   0.07178   0.55100   1.000
    C102    C    0.09612   0.62476   0.20442   1.000
    C103    C    0.59601   0.62499   0.20455   1.000
    C104    C    0.03201   0.62542   0.26850   1.000
    C105    C    0.53184   0.62560   0.26852   1.000
    C106    C    0.05635   0.72159   0.27401   1.000
    C107    C    0.55617   0.72179   0.27400   1.000
    C108    C    0.45767   0.67364   0.19382   1.000
    C109    C    0.95777   0.67350   0.19392   1.000
    C110    C    0.03414   0.74760   0.15031   1.000
    C111    C    0.53409   0.74777   0.15032   1.000
    C112    C    0.48815   0.67411   0.06212   1.000
    C113    C    0.98814   0.67397   0.06218   1.000
    C114    C    0.06755   0.64889   0.07160   1.000
    C115    C    0.56757   0.64908   0.07166   1.000
    C116    C    0.46323   0.52581   0.14935   1.000
    C117    C    0.96330   0.52566   0.14940   1.000
    C118    C    0.07955   0.37286   0.01916   1.000
    C119    C    0.57949   0.37301   0.01914   1.000
    C120    C    0.99717   0.37637   0.04374   1.000
    C121    C    0.49710   0.37656   0.04372   1.000
    C122    C    0.15832   0.46344   0.14557   1.000
    C123    C    0.65823   0.46368   0.14559   1.000
    C124    C    0.46603   0.40577   0.18619   1.000
    C125    C    0.96608   0.40576   0.18626   1.000
    C126    C    0.99787   0.45023   0.33547   1.000
    C127    C    0.49784   0.45014   0.33537   1.000
    C128    C    0.18152   0.50476   0.29561   1.000
    C129    C    0.68145   0.50490   0.29560   1.000
    C130    C    0.07832   0.52066   0.07176   1.000
    C131    C    0.57829   0.52083   0.07176   1.000
    C132    C    0.42961   0.57971   0.37518   1.000
    C133    C    0.92955   0.57963   0.37504   1.000
    C134    C    0.36561   0.64334   0.37468   1.000
    C135    C    0.86552   0.64323   0.37455   1.000
    C136    C    0.38981   0.55278   0.27841   1.000
    C137    C    0.88972   0.55267   0.27828   1.000
    C138    C    0.29116   0.52100   0.32662   1.000
    C139    C    0.79111   0.52084   0.32652   1.000
    C140    C    0.36730   0.40317   0.25228   1.000
    C141    C    0.86729   0.40306   0.25220   1.000
    C142    C    0.32130   0.38866   0.32590   1.000
    C143    C    0.82132   0.38854   0.32593   1.000
    C144    C    0.40078   0.42285   0.35090   1.000
    C145    C    0.90079   0.42278   0.35084   1.000
    C146    C    0.29681   0.62398   0.47448   1.000
    C147    C    0.79678   0.62388   0.47439   1.000
    C148    C    0.41303   0.64596   0.62717   1.000
    C149    C    0.91297   0.64587   0.62710   1.000
    C150    C    0.33064   0.66705   0.62379   1.000
    C151    C    0.83058   0.66693   0.62370   1.000
    C152    C    0.49173   0.68210   0.53669   1.000
    C153    C    0.99164   0.68194   0.53652   1.000
    C154    C    0.29946   0.78034   0.59458   1.000
    C155    C    0.79943   0.78033   0.59464   1.000
    C156    C    0.33120   0.88522   0.55023   1.000
    C157    C    0.83117   0.88525   0.55034   1.000
    C158    C    0.01480   0.79086   0.49540   1.000
    C159    C    0.51488   0.79099   0.49554   1.000
    C160    C    0.41175   0.55111   0.47932   1.000
    C161    C    0.91172   0.55104   0.47924   1.000
    C162    C    0.26273   0.79556   0.42088   1.000
    C163    C    0.76285   0.79570   0.42084   1.000
    C164    C    0.19861   0.73154   0.35754   1.000
    C165    C    0.69880   0.73156   0.35746   1.000
    C166    C    0.22291   0.72601   0.44824   1.000
    C167    C    0.72310   0.72612   0.44820   1.000
    C168    C    0.12436   0.80615   0.48012   1.000
    C169    C    0.62447   0.80609   0.47995   1.000
    C170    C    0.20072   0.84975   0.59778   1.000
    C171    C    0.70076   0.84985   0.59771   1.000
    C172    C    0.15474   0.93788   0.61210   1.000
    C173    C    0.65473   0.93791   0.61194   1.000
    C174    C    0.23416   0.92840   0.57761   1.000
    C175    C    0.73417   0.92851   0.57750   1.000
    C176    C    0.12989   0.85057   0.37663   1.000
    C177    C    0.62997   0.85049   0.37646   1.000
    C178    C    0.24615   0.98072   0.35377   1.000
    C179    C    0.74619   0.98071   0.35361   1.000
    C180    C    0.16375   0.95619   0.33280   1.000
    C181    C    0.66380   0.95616   0.33263   1.000
    C182    C    0.32487   0.85418   0.31813   1.000
    C183    C    0.82496   0.85422   0.31788   1.000
    C184    C    0.13268   0.81387   0.21968   1.000
    C185    C    0.63271   0.81378   0.21962   1.000
    C186    C    0.16448   0.66480   0.11483   1.000
    C187    C    0.66451   0.66469   0.11483   1.000
    C188    C    0.34809   0.70429   0.20920   1.000
    C189    C    0.84818   0.70431   0.20910   1.000
    C190    C    0.24495   0.92811   0.44908   1.000
    C191    C    0.74499   0.92812   0.44890   1.000
    C192    C    0.29934   0.34662   0.76947   1.000
    C193    C    0.79934   0.34654   0.76944   1.000
    C194    C    0.25164   0.35948   0.83864   1.000
    C195    C    0.75164   0.35943   0.83862   1.000
    C196    C    0.27433   0.32026   0.89166   1.000
    C197    C    0.77429   0.32018   0.89163   1.000
    C198    C    0.23187   0.45351   0.89427   1.000
    C199    C    0.73190   0.45349   0.89425   1.000
    C200    C    0.29200   0.58789   0.93599   1.000
    C201    C    0.79212   0.58780   0.93596   1.000
    C202    C    0.30914   0.56754   0.84692   1.000
    C203    C    0.80921   0.56742   0.84687   1.000
    C204    C    0.37053   0.54009   0.81501   1.000
    C205    C    0.87057   0.53983   0.81487   1.000
    C206    C    0.26436   0.57224   0.79234   1.000
    C207    C    0.76444   0.57225   0.79235   1.000
    C208    C    0.28144   0.54784   0.70915   1.000
    C209    C    0.78148   0.54784   0.70910   1.000
    C210    C    0.38428   0.51663   0.73123   1.000
    C211    C    0.88428   0.51637   0.73100   1.000
    C212    C    0.17495   0.46349   0.95215   1.000
    C213    C    0.67496   0.46352   0.95211   1.000
    C214    C    0.13284   0.42246   0.65320   1.000
    C215    C    0.63289   0.42244   0.65311   1.000
    C216    C    0.08502   0.47864   0.64034   1.000
    C217    C    0.58507   0.47863   0.64020   1.000
    C218    C    0.10750   0.57091   0.67960   1.000
    C219    C    0.60757   0.57089   0.67956   1.000
    C220    C    0.06533   0.44036   0.54625   1.000
    C221    C    0.56532   0.44033   0.54620   1.000
    C222    C    0.12557   0.34818   0.41187   1.000
    C223    C    0.62548   0.34813   0.41175   1.000
    C224    C    0.14262   0.27936   0.43215   1.000
    C225    C    0.64256   0.27930   0.43199   1.000
    C226    C    0.20396   0.27487   0.45975   1.000
    C227    C    0.70393   0.27474   0.45945   1.000
    C228    C    0.09783   0.22004   0.42728   1.000
    C229    C    0.59776   0.22003   0.42720   1.000
    C230    C    0.11484   0.16119   0.45166   1.000
    C231    C    0.61479   0.16117   0.45158   1.000
    C232    C    0.21764   0.21449   0.48316   1.000
    C233    C    0.71764   0.21435   0.48284   1.000
    C234    C    0.00831   0.48812   0.53627   1.000
    C235    C    0.50832   0.48814   0.53627   1.000
    C236    C    0.46600   0.23040   0.57669   1.000
    C237    C    0.96606   0.23032   0.57675   1.000
    C238    C    0.41827   0.16127   0.52055   1.000
    C239    C    0.91833   0.16121   0.52057   1.000
    C240    C    0.44088   0.10820   0.42834   1.000
    C241    C    0.94099   0.10811   0.42839   1.000
    C242    C    0.39854   0.10571   0.55914   1.000
    C243    C    0.89852   0.10568   0.55916   1.000
    C244    C    0.45877   0.06405   0.65188   1.000
    C245    C    0.95864   0.06397   0.65194   1.000
    C246    C    0.47586   0.15310   0.72051   1.000
    C247    C    0.97578   0.15300   0.72059   1.000
    C248    C    0.03716   0.18492   0.72505   1.000
    C249    C    0.53720   0.18513   0.72489   1.000
    C250    C    0.43110   0.20755   0.77987   1.000
    C251    C    0.93101   0.20752   0.77987   1.000
    C252    C    0.44815   0.29068   0.83870   1.000
    C253    C    0.94810   0.29063   0.83870   1.000
    C254    C    0.05093   0.26861   0.78542   1.000
    C255    C    0.55093   0.26883   0.78526   1.000
    C256    C    0.34161   0.04783   0.51139   1.000
    C257    C    0.84161   0.04779   0.51134   1.000
    C258    C    0.04942   0.65317   0.23049   1.000
    C259    C    0.54929   0.65337   0.23050   1.000
    C260    C    0.50162   0.64052   0.16135   1.000
    C261    C    0.00000   0.64034   0.16137   1.000
    C262    C    0.02433   0.67957   0.10830   1.000
    C263    C    0.52432   0.67974   0.10834   1.000
    C264    C    0.48187   0.54648   0.10571   1.000
    C265    C    0.98192   0.54630   0.10576   1.000
    C266    C    0.04210   0.41194   0.06399   1.000
    C267    C    0.54204   0.41210   0.06397   1.000
    C268    C    0.05922   0.43231   0.15307   1.000
    C269    C    0.55915   0.43246   0.15305   1.000
    C270    C    0.12060   0.45981   0.18500   1.000
    C271    C    0.62052   0.46000   0.18500   1.000
    C272    C    0.01444   0.42762   0.20765   1.000
    C273    C    0.51439   0.42767   0.20760   1.000
    C274    C    0.03150   0.45209   0.29080   1.000
    C275    C    0.53146   0.45207   0.29079   1.000
    C276    C    0.13433   0.48332   0.26879   1.000
    C277    C    0.63426   0.48344   0.26877   1.000
    C278    C    0.42494   0.53645   0.04784   1.000
    C279    C    0.92497   0.53634   0.04792   1.000
    C280    C    0.38291   0.57758   0.34685   1.000
    C281    C    0.88284   0.57748   0.34673   1.000
    C282    C    0.33508   0.52139   0.35969   1.000
    C283    C    0.83504   0.52127   0.35959   1.000
    C284    C    0.35756   0.42912   0.32034   1.000
    C285    C    0.85756   0.42901   0.32026   1.000
    C286    C    0.31535   0.55966   0.45376   1.000
    C287    C    0.81531   0.55956   0.45367   1.000
    C288    C    0.37555   0.65183   0.58817   1.000
    C289    C    0.87549   0.65172   0.58800   1.000
    C290    C    0.39263   0.72064   0.56790   1.000
    C291    C    0.89257   0.72055   0.56785   1.000
    C292    C    0.45399   0.72516   0.54039   1.000
    C293    C    0.95391   0.72503   0.54027   1.000
    C294    C    0.34783   0.77993   0.57270   1.000
    C295    C    0.84778   0.77989   0.57271   1.000
    C296    C    0.36485   0.83877   0.54832   1.000
    C297    C    0.86481   0.83876   0.54837   1.000
    C298    C    0.46769   0.78553   0.51698   1.000
    C299    C    0.96762   0.78543   0.51689   1.000
    C300    C    0.25834   0.51188   0.46371   1.000
    C301    C    0.75831   0.51178   0.46364   1.000
    C302    C    0.21602   0.76952   0.42325   1.000
    C303    C    0.71616   0.76960   0.42318   1.000
    C304    C    0.16829   0.83866   0.47943   1.000
    C305    C    0.66837   0.83867   0.47930   1.000
    C306    C    0.19093   0.89170   0.57160   1.000
    C307    C    0.69096   0.89176   0.57151   1.000
    C308    C    0.14853   0.89423   0.44087   1.000
    C309    C    0.64858   0.89419   0.44070   1.000
    C310    C    0.20870   0.93592   0.34812   1.000
    C311    C    0.70874   0.93590   0.34795   1.000
    C312    C    0.22580   0.84687   0.27947   1.000
    C313    C    0.72586   0.84685   0.27932   1.000
    C314    C    0.28715   0.81485   0.27505   1.000
    C315    C    0.78723   0.81487   0.27485   1.000
    C316    C    0.18104   0.79241   0.22015   1.000
    C317    C    0.68108   0.79235   0.22000   1.000
    C318    C    0.19810   0.70928   0.16132   1.000
    C319    C    0.69814   0.70921   0.16127   1.000
    C320    C    0.30090   0.73115   0.21469   1.000
    C321    C    0.80097   0.73115   0.21453   1.000
    C322    C    0.09161   0.95213   0.48866   1.000
    C323    C    0.59163   0.95206   0.48847   1.000
    C324    C    0.29162   0.45921   0.13390   1.000
    C325    C    0.79151   0.45908   0.13386   1.000
    C326    C    0.12462   0.67479   0.54126   1.000
    C327    C    0.62472   0.67473   0.54110   1.000
    C328    C    0.45812   0.86609   0.32546   1.000
    C329    C    0.95825   0.86597   0.32552   1.000
    C330    C    0.04156   0.54060   0.86606   1.000
    C331    C    0.54157   0.54077   0.86604   1.000
    C332    C    0.37467   0.32524   0.45877   1.000
    C333    C    0.87469   0.32511   0.45872   1.000
    C334    C    0.20819   0.13387   0.67453   1.000
    C335    C    0.70818   0.13389   0.67436   1.000
    C336    C    0.28515   0.51059   0.94443   1.000
    C337    C    0.78521   0.51051   0.94442   1.000
    C338    C    0.34030   0.51955   0.67817   1.000
    C339    C    0.84030   0.51941   0.67809   1.000
    C340    C    0.11862   0.43374   0.48927   1.000
    C341    C    0.61859   0.43369   0.48917   1.000
    C342    C    0.17365   0.15848   0.48007   1.000
    C343    C    0.67364   0.15839   0.47986   1.000
    C344    C    0.45186   0.05559   0.56613   1.000
    C345    C    0.95181   0.05555   0.56620   1.000
    C346    C    0.00696   0.32160   0.84140   1.000
    C347    C    0.50696   0.32174   0.84131   1.000
    C348    C    0.03520   0.48924   0.05555   1.000
    C349    C    0.53517   0.48941   0.05554   1.000
    C350    C    0.09034   0.48043   0.32185   1.000
    C351    C    0.59029   0.48045   0.32180   1.000
    C352    C    0.36863   0.56627   0.51076   1.000
    C353    C    0.86859   0.56617   0.51067   1.000
    C354    C    0.42369   0.84151   0.51998   1.000
    C355    C    0.92364   0.84146   0.51990   1.000
    C356    C    0.20183   0.94435   0.43386   1.000
    C357    C    0.70186   0.94433   0.43369   1.000
    C358    C    0.25693   0.67823   0.15866   1.000
    C359    C    0.75699   0.67819   0.15858   1.000
    C360    C    0.12794   0.41556   0.91505   1.000
    C361    C    0.62793   0.41563   0.91499   1.000
    C362    C    0.17759   0.51865   0.03130   1.000
    C363    C    0.67760   0.51864   0.03127   1.000
    C364    C    0.46127   0.49854   0.58405   1.000
    C365    C    0.96125   0.49845   0.58000   1.000
    C366    C    0.01094   0.51253   0.48137   1.000
    C367    C    0.51094   0.51256   0.48138   1.000
    C368    C    0.29458   0.08492   0.50054   1.000
    C369    C    0.79460   0.08487   0.50040   1.000
    C370    C    0.34428   0.96870   0.48740   1.000
    C371    C    0.84428   0.96866   0.48739   1.000
    C372    C    0.37791   0.58437   0.08495   1.000
    C373    C    0.87795   0.58423   0.08508   1.000
    C374    C    0.42760   0.48132   0.96868   1.000
    C375    C    0.92762   0.48127   0.96874   1.000
    C376    C    0.21128   0.50155   0.41598   1.000
    C377    C    0.71127   0.50133   0.41584   1.000
    C378    C    0.26095   0.48749   0.51862   1.000
    C379    C    0.76094   0.48738   0.51854   1.000
    C380    C    0.04458   0.91506   0.49957   1.000
    C381    C    0.54462   0.91495   0.49933   1.000
    C382    C    0.09428   0.03127   0.51259   1.000
    C383    C    0.59429   0.03121   0.51249   1.000
    O384    O    0.56077   0.39255   0.04156   1.000
    O385    O    0.06083   0.39240   0.04157   1.000
    O386    O    0.72773   0.53458   0.05313   1.000
    O387    O    0.67628   0.49108   0.99169   1.000
    O388    O    0.22772   0.53462   0.05350   1.000
    O389    O    0.17627   0.49107   0.99172   1.000
    O390    O    0.51957   0.39433   0.05384   1.000
    O391    O    0.01963   0.39416   0.05386   1.000
    O392    O    0.40143   0.56041   0.06639   1.000
    O393    O    0.45341   0.54147   0.07677   1.000
    O394    O    0.42627   0.50889   0.00826   1.000
    O395    O    0.90146   0.56029   0.06650   1.000
    O396    O    0.95344   0.54132   0.07684   1.000
    O397    O    0.92629   0.50881   0.00833   1.000
    O398    O    0.53860   0.45075   0.05975   1.000
    O399    O    0.55673   0.50512   0.06365   1.000
    O400    O    0.50852   0.51794   0.08062   1.000
    O401    O    0.53151   0.46939   0.98990   1.000
    O402    O    0.03865   0.45059   0.05977   1.000
    O403    O    0.05676   0.50495   0.06365   1.000
    O404    O    0.00856   0.51777   0.08065   1.000
    O405    O    0.03153   0.46923   0.98993   1.000
    O406    O    0.50624   0.67693   0.08523   1.000
    O407    O    0.00624   0.67677   0.08524   1.000
    O408    O    0.55060   0.42228   0.10851   1.000
    O409    O    0.05066   0.42213   0.10853   1.000
    O410    O    0.04594   0.66423   0.08995   1.000
    O411    O    0.54594   0.66441   0.09000   1.000
    O412    O    0.82790   0.56738   0.08004   1.000
    O413    O    0.78468   0.50480   0.10443   1.000
    O414    O    0.76742   0.61435   0.11679   1.000
    O415    O    0.78153   0.53052   0.00971   1.000
    O416    O    0.32788   0.56748   0.08032   1.000
    O417    O    0.28473   0.50491   0.10480   1.000
    O418    O    0.26739   0.61442   0.11718   1.000
    O419    O    0.28150   0.53059   0.01006   1.000
    O420    O    0.47255   0.53614   0.12753   1.000
    O421    O    0.49175   0.59350   0.13353   1.000
    O422    O    0.97261   0.53598   0.12758   1.000
    O423    O    0.99096   0.59332   0.13356   1.000
    O424    O    0.02924   0.71359   0.12930   1.000
    O425    O    0.01217   0.65996   0.13483   1.000
    O426    O    0.52920   0.71376   0.12933   1.000
    O427    O    0.51297   0.66013   0.13484   1.000
    O428    O    0.68133   0.68695   0.13805   1.000
    O429    O    0.18129   0.68704   0.13807   1.000
    O430    O    0.13946   0.46162   0.16528   1.000
    O431    O    0.63937   0.46184   0.16529   1.000
    O432    O    0.58984   0.44623   0.16902   1.000
    O433    O    0.53677   0.43007   0.18032   1.000
    O434    O    0.08991   0.44606   0.16903   1.000
    O435    O    0.03683   0.42997   0.18036   1.000
    O436    O    0.72756   0.69370   0.15992   1.000
    O437    O    0.77898   0.70467   0.18655   1.000
    O438    O    0.22751   0.69376   0.15999   1.000
    O439    O    0.27891   0.70469   0.18667   1.000
    O440    O    0.68961   0.75078   0.19063   1.000
    O441    O    0.18957   0.75085   0.19073   1.000
    O442    O    0.47964   0.65708   0.17758   1.000
    O443    O    0.52545   0.64694   0.19592   1.000
    O444    O    0.97888   0.65692   0.17764   1.000
    O445    O    0.02471   0.64676   0.19593   1.000
    O446    O    0.62739   0.47172   0.22688   1.000
    O447    O    0.12746   0.47157   0.22689   1.000
    O448    O    0.49021   0.41672   0.19689   1.000
    O449    O    0.99026   0.41669   0.19695   1.000
    O450    O    0.07277   0.63897   0.21745   1.000
    O451    O    0.57265   0.63918   0.21752   1.000
    O452    O    0.52292   0.43987   0.24919   1.000
    O453    O    0.02297   0.43986   0.24922   1.000
    O454    O    0.82458   0.71773   0.21181   1.000
    O455    O    0.32449   0.71772   0.21194   1.000
    O456    O    0.79410   0.77301   0.24469   1.000
    O457    O    0.29403   0.77300   0.24487   1.000
    O458    O    0.65690   0.80307   0.21981   1.000
    O459    O    0.15686   0.80314   0.21991   1.000
    O460    O    0.70347   0.81960   0.24966   1.000
    O461    O    0.20342   0.81964   0.24981   1.000
    O462    O    0.04072   0.63930   0.24949   1.000
    O463    O    0.05288   0.68738   0.25225   1.000
    O464    O    0.54056   0.63949   0.24951   1.000
    O465    O    0.55273   0.68758   0.25225   1.000
    O466    O    0.86243   0.41603   0.28623   1.000
    O467    O    0.36243   0.41614   0.28631   1.000
    O468    O    0.65785   0.49417   0.28218   1.000
    O469    O    0.61227   0.48195   0.29528   1.000
    O470    O    0.15792   0.49404   0.28220   1.000
    O471    O    0.11233   0.48188   0.29532   1.000
    O472    O    0.75655   0.83086   0.27708   1.000
    O473    O    0.80610   0.83455   0.29636   1.000
    O474    O    0.25648   0.83086   0.27726   1.000
    O475    O    0.30601   0.83452   0.29659   1.000
    O476    O    0.88628   0.56508   0.31250   1.000
    O477    O    0.38636   0.56518   0.31263   1.000
    O478    O    0.71730   0.89137   0.31363   1.000
    O479    O    0.21725   0.89139   0.31379   1.000
    O480    O    0.56087   0.46626   0.30629   1.000
    O481    O    0.51465   0.45110   0.31308   1.000
    O482    O    0.06092   0.46626   0.30632   1.000
    O483    O    0.01468   0.45116   0.31313   1.000
    O484    O    0.83944   0.40878   0.32309   1.000
    O485    O    0.87918   0.42590   0.33555   1.000
    O486    O    0.84630   0.47514   0.33992   1.000
    O487    O    0.33943   0.40889   0.32312   1.000
    O488    O    0.37917   0.42598   0.33562   1.000
    O489    O    0.34632   0.47526   0.34001   1.000
    O490    O    0.60074   0.50286   0.38565   1.000
    O491    O    0.10077   0.50287   0.38572   1.000
    O492    O    0.45132   0.89523   0.40026   1.000
    O493    O    0.95138   0.89515   0.40031   1.000
    O494    O    0.81308   0.52106   0.34305   1.000
    O495    O    0.31312   0.52120   0.34315   1.000
    O496    O    0.68627   0.94603   0.34029   1.000
    O497    O    0.18623   0.94606   0.34046   1.000
    O498    O    0.85894   0.54938   0.35316   1.000
    O499    O    0.87418   0.61036   0.36064   1.000
    O500    O    0.90620   0.57856   0.36088   1.000
    O501    O    0.35900   0.54949   0.35327   1.000
    O502    O    0.37426   0.61046   0.36076   1.000
    O503    O    0.40626   0.57864   0.36101   1.000
    O504    O    0.72747   0.95830   0.35078   1.000
    O505    O    0.70530   0.94012   0.39082   1.000
    O506    O    0.22742   0.95832   0.35094   1.000
    O507    O    0.20526   0.94014   0.39099   1.000
    O508    O    0.70748   0.75058   0.39032   1.000
    O509    O    0.20732   0.75053   0.39039   1.000
    O510    O    0.82518   0.54042   0.40663   1.000
    O511    O    0.32522   0.54053   0.40672   1.000
    O512    O    0.64421   0.35105   0.39223   1.000
    O513    O    0.14432   0.35111   0.39233   1.000
    O514    O    0.60301   0.34053   0.39396   1.000
    O515    O    0.10312   0.34057   0.39404   1.000
    O516    O    0.63927   0.87234   0.40858   1.000
    O517    O    0.13921   0.87240   0.40875   1.000
    O518    O    0.42278   0.08511   0.40812   1.000
    O519    O    0.92289   0.08503   0.40815   1.000
    O520    O    0.44576   0.12916   0.41525   1.000
    O521    O    0.94590   0.12906   0.41529   1.000
    O522    O    0.07366   0.21983   0.41631   1.000
    O523    O    0.57357   0.21984   0.41629   1.000
    O524    O    0.63402   0.31371   0.42187   1.000
    O525    O    0.62203   0.39091   0.45046   1.000
    O526    O    0.13410   0.31377   0.42201   1.000
    O527    O    0.12210   0.39096   0.45057   1.000
    O528    O    0.66123   0.51330   0.43267   1.000
    O529    O    0.73479   0.50656   0.43974   1.000
    O530    O    0.16124   0.51343   0.43279   1.000
    O531    O    0.23481   0.50672   0.43984   1.000
    O532    O    0.73951   0.78265   0.42201   1.000
    O533    O    0.23937   0.78254   0.42206   1.000
    O534    O    0.46250   0.08984   0.42533   1.000
    O535    O    0.96260   0.08975   0.42541   1.000
    O536    O    0.71963   0.74786   0.43569   1.000
    O537    O    0.69227   0.80413   0.45124   1.000
    O538    O    0.21946   0.74777   0.43574   1.000
    O539    O    0.19215   0.80409   0.45134   1.000
    O540    O    0.62016   0.24966   0.42959   1.000
    O541    O    0.60628   0.19060   0.43939   1.000
    O542    O    0.12022   0.24970   0.42971   1.000
    O543    O    0.10633   0.19062   0.43947   1.000
    O544    O    0.42958   0.13474   0.47444   1.000
    O545    O    0.92966   0.13466   0.47448   1.000
    O546    O    0.67324   0.27702   0.44572   1.000
    O547    O    0.17329   0.27712   0.44595   1.000
    O548    O    0.67522   0.91926   0.43719   1.000
    O549    O    0.72343   0.93622   0.44129   1.000
    O550    O    0.69819   0.00993   0.47922   1.000
    O551    O    0.17518   0.91929   0.43736   1.000
    O552    O    0.22339   0.93623   0.44147   1.000
    O553    O    0.19817   0.00996   0.47940   1.000
    O554    O    0.65847   0.86643   0.46000   1.000
    O555    O    0.62010   0.92312   0.46458   1.000
    O556    O    0.15841   0.86645   0.46015   1.000
    O557    O    0.12007   0.92318   0.46476   1.000
    O558    O    0.56107   0.51891   0.46544   1.000
    O559    O    0.61489   0.47947   0.46934   1.000
    O560    O    0.61796   0.60000   0.49530   1.000
    O561    O    0.09801   0.13795   0.45063   1.000
    O562    O    0.06107   0.51892   0.46548   1.000
    O563    O    0.11491   0.47953   0.46943   1.000
    O564    O    0.11791   0.60005   0.49543   1.000
    O565    O    0.59797   0.13795   0.45063   1.000
    O566    O    0.64422   0.15978   0.46572   1.000
    O567    O    0.14424   0.15983   0.46586   1.000
    O568    O    0.78681   0.53567   0.45865   1.000
    O569    O    0.80605   0.59172   0.46403   1.000
    O570    O    0.84195   0.56287   0.48217   1.000
    O571    O    0.28684   0.53577   0.45873   1.000
    O572    O    0.30608   0.59182   0.46412   1.000
    O573    O    0.34199   0.56296   0.48226   1.000
    O574    O    0.86794   0.39985   0.50453   1.000
    O575    O    0.36793   0.39997   0.50460   1.000
    O576    O    0.72280   0.29626   0.46129   1.000
    O577    O    0.71079   0.24454   0.47114   1.000
    O578    O    0.22283   0.29641   0.46162   1.000
    O579    O    0.21080   0.24468   0.47145   1.000
    O580    O    0.75963   0.49958   0.49109   1.000
    O581    O    0.25964   0.49969   0.49116   1.000
    O582    O    0.39440   0.94653   0.48123   1.000
    O583    O    0.49457   0.91965   0.48719   1.000
    O584    O    0.43411   0.88293   0.49752   1.000
    O585    O    0.44819   0.98997   0.52059   1.000
    O586    O    0.89440   0.94650   0.48125   1.000
    O587    O    0.99455   0.91970   0.48734   1.000
    O588    O    0.93408   0.88290   0.49750   1.000
    O589    O    0.94816   0.98994   0.52065   1.000
    O590    O    0.89016   0.55861   0.49495   1.000
    O591    O    0.64642   0.82238   0.47962   1.000
    O592    O    0.67967   0.86521   0.52540   1.000
    O593    O    0.39019   0.55869   0.49504   1.000
    O594    O    0.14633   0.82241   0.47977   1.000
    O595    O    0.17961   0.86518   0.52551   1.000
    O596    O    0.69564   0.18637   0.48135   1.000
    O597    O    0.68408   0.11696   0.50231   1.000
    O598    O    0.19564   0.18648   0.48161   1.000
    O599    O    0.18408   0.11703   0.50251   1.000
    O600    O    0.00963   0.50032   0.50882   1.000
    O601    O    0.50963   0.50035   0.50882   1.000
    O602    O    0.74124   0.21160   0.49354   1.000
    O603    O    0.24123   0.21177   0.49391   1.000
    O604    O    0.84294   0.00823   0.49936   1.000
    O605    O    0.34295   0.00826   0.49939   1.000
    O606    O    0.56813   0.93350   0.49390   1.000
    O607    O    0.59296   0.99163   0.50048   1.000
    O608    O    0.06810   0.93360   0.49411   1.000
    O609    O    0.09294   0.99170   0.50062   1.000
    O610    O    0.64016   0.44124   0.50487   1.000
    O611    O    0.59196   0.43701   0.51768   1.000
    O612    O    0.14018   0.44132   0.50500   1.000
    O613    O    0.09198   0.43705   0.51776   1.000
    O614    O    0.99121   0.78815   0.50614   1.000
    O615    O    0.49129   0.78826   0.50626   1.000
    O616    O    0.81811   0.06633   0.50587   1.000
    O617    O    0.74456   0.08020   0.51258   1.000
    O618    O    0.31809   0.06638   0.50596   1.000
    O619    O    0.24454   0.08025   0.51274   1.000
    O620    O    0.86489   0.52038   0.53050   1.000
    O621    O    0.87204   0.60895   0.54933   1.000
    O622    O    0.36491   0.52049   0.53060   1.000
    O623    O    0.37209   0.60905   0.54946   1.000
    O624    O    0.87007   0.07674   0.53525   1.000
    O625    O    0.37008   0.07677   0.53526   1.000
    O626    O    0.64441   0.05337   0.51862   1.000
    O627    O    0.14439   0.05342   0.51877   1.000
    O628    O    0.94563   0.81345   0.51839   1.000
    O629    O    0.96077   0.75523   0.52858   1.000
    O630    O    0.44569   0.81352   0.51848   1.000
    O631    O    0.46084   0.75535   0.52868   1.000
    O632    O    0.81106   0.48098   0.53444   1.000
    O633    O    0.31107   0.48110   0.53453   1.000
    O634    O    0.89637   0.17748   0.52021   1.000
    O635    O    0.39630   0.17753   0.52022   1.000
    O636    O    0.89422   0.84011   0.53413   1.000
    O637    O    0.39427   0.84014   0.53415   1.000
    O638    O    0.40841   0.13349   0.53984   1.000
    O639    O    0.44213   0.19584   0.54862   1.000
    O640    O    0.90842   0.13344   0.53986   1.000
    O641    O    0.94219   0.19576   0.54866   1.000
    O642    O    0.70135   0.10471   0.59956   1.000
    O643    O    0.20135   0.10472   0.59974   1.000
    O644    O    0.55606   0.40818   0.53585   1.000
    O645    O    0.05607   0.40820   0.53589   1.000
    O646    O    0.53682   0.46423   0.54124   1.000
    O647    O    0.48480   0.49334   0.56016   1.000
    O648    O    0.03682   0.46424   0.54126   1.000
    O649    O    0.98478   0.49329   0.55813   1.000
    O650    O    0.97278   0.70349   0.53839   1.000
    O651    O    0.47286   0.70363   0.53854   1.000
    O652    O    0.92324   0.72279   0.55406   1.000
    O653    O    0.42331   0.72290   0.55414   1.000
    O654    O    0.57520   0.45948   0.59320   1.000
    O655    O    0.07518   0.45950   0.59330   1.000
    O656    O    0.34803   0.86200   0.54927   1.000
    O657    O    0.35634   0.80935   0.56051   1.000
    O658    O    0.84799   0.86201   0.54935   1.000
    O659    O    0.85630   0.80933   0.56054   1.000
    O660    O    0.91122   0.48652   0.56517   1.000
    O661    O    0.85074   0.49700   0.61421   1.000
    O662    O    0.41123   0.48662   0.56724   1.000
    O663    O    0.35074   0.49713   0.61430   1.000
    O664    O    0.47341   0.06370   0.55850   1.000
    O665    O    0.97337   0.06366   0.55860   1.000
    O666    O    0.46944   0.25215   0.56414   1.000
    O667    O    0.96953   0.25206   0.56424   1.000
    O668    O    0.42520   0.08065   0.56263   1.000
    O669    O    0.38923   0.12754   0.59126   1.000
    O670    O    0.92516   0.08061   0.56268   1.000
    O671    O    0.88919   0.12752   0.59127   1.000
    O672    O    0.45531   0.05982   0.60900   1.000
    O673    O    0.95522   0.05976   0.60907   1.000
    O674    O    0.87017   0.75022   0.57028   1.000
    O675    O    0.88403   0.68614   0.57792   1.000
    O676    O    0.37023   0.75028   0.57030   1.000
    O677    O    0.38409   0.68623   0.57803   1.000
    O678    O    0.71257   0.91013   0.57450   1.000
    O679    O    0.69586   0.87081   0.58461   1.000
    O680    O    0.67285   0.91484   0.59172   1.000
    O681    O    0.21255   0.91005   0.57460   1.000
    O682    O    0.19583   0.87073   0.58469   1.000
    O683    O    0.17283   0.91479   0.59185   1.000
    O684    O    0.32364   0.78013   0.58364   1.000
    O685    O    0.82360   0.78011   0.58367   1.000
    O686    O    0.48935   0.21738   0.57787   1.000
    O687    O    0.45730   0.24941   0.60955   1.000
    O688    O    0.98940   0.21728   0.57795   1.000
    O689    O    0.95734   0.24933   0.60960   1.000
    O690    O    0.85304   0.65933   0.60585   1.000
    O691    O    0.89423   0.64880   0.60755   1.000
    O692    O    0.35309   0.65944   0.60598   1.000
    O693    O    0.39429   0.64889   0.60767   1.000
    O694    O    0.65624   0.42135   0.63893   1.000
    O695    O    0.15619   0.42138   0.63904   1.000
    O696    O    0.62424   0.38956   0.63921   1.000
    O697    O    0.12419   0.38958   0.63929   1.000
    O698    O    0.60898   0.45054   0.64665   1.000
    O699    O    0.56311   0.47886   0.65678   1.000
    O700    O    0.59632   0.52476   0.65988   1.000
    O701    O    0.10893   0.45055   0.64677   1.000
    O702    O    0.06305   0.47885   0.65687   1.000
    O703    O    0.09626   0.52478   0.65997   1.000
    O704    O    0.47750   0.04165   0.64904   1.000
    O705    O    0.97735   0.04154   0.64911   1.000
    O706    O    0.62918   0.57400   0.66425   1.000
    O707    O    0.12911   0.57405   0.66435   1.000
    O708    O    0.43631   0.05391   0.65955   1.000
    O709    O    0.46731   0.10858   0.68619   1.000
    O710    O    0.93616   0.05386   0.65959   1.000
    O711    O    0.96721   0.10848   0.68626   1.000
    O712    O    0.63635   0.43485   0.68733   1.000
    O713    O    0.13627   0.43486   0.68742   1.000
    O714    O    0.26463   0.54877   0.68685   1.000
    O715    O    0.76467   0.54882   0.68685   1.000
    O716    O    0.58944   0.59112   0.67672   1.000
    O717    O    0.08937   0.59114   0.67680   1.000
    O718    O    0.81089   0.53362   0.69359   1.000
    O719    O    0.86229   0.51789   0.70454   1.000
    O720    O    0.31087   0.53369   0.69366   1.000
    O721    O    0.36229   0.51809   0.70470   1.000
    O722    O    0.61244   0.58388   0.71359   1.000
    O723    O    0.11236   0.58390   0.71366   1.000
    O724    O    0.55606   0.16547   0.70334   1.000
    O725    O    0.05602   0.16524   0.70352   1.000
    O726    O    0.90787   0.50562   0.71760   1.000
    O727    O    0.40788   0.50594   0.71782   1.000
    O728    O    0.77296   0.56004   0.75072   1.000
    O729    O    0.27290   0.56004   0.75074   1.000
    O730    O    0.50653   0.16912   0.72270   1.000
    O731    O    0.45348   0.18033   0.75019   1.000
    O732    O    0.00647   0.16896   0.72282   1.000
    O733    O    0.95339   0.18026   0.75023   1.000
    O734    O    0.54407   0.22698   0.75507   1.000
    O735    O    0.04404   0.22677   0.75523   1.000
    O736    O    0.80278   0.31232   0.74768   1.000
    O737    O    0.30280   0.31241   0.74771   1.000
    O738    O    0.87742   0.52810   0.77293   1.000
    O739    O    0.37740   0.52836   0.77312   1.000
    O740    O    0.79062   0.36042   0.75044   1.000
    O741    O    0.29062   0.36050   0.75047   1.000
    O742    O    0.82269   0.36072   0.78244   1.000
    O743    O    0.77549   0.35299   0.80403   1.000
    O744    O    0.32270   0.36082   0.78248   1.000
    O745    O    0.27549   0.35305   0.80405   1.000
    O746    O    0.90682   0.19682   0.78008   1.000
    O747    O    0.93955   0.24907   0.80928   1.000
    O748    O    0.40693   0.19682   0.78012   1.000
    O749    O    0.43963   0.24911   0.80928   1.000
    O750    O    0.57452   0.28226   0.78794   1.000
    O751    O    0.52895   0.29529   0.81328   1.000
    O752    O    0.07454   0.28201   0.78813   1.000
    O753    O    0.02894   0.29510   0.81341   1.000
    O754    O    0.24017   0.58316   0.80303   1.000
    O755    O    0.28675   0.56989   0.81963   1.000
    O756    O    0.74027   0.58322   0.80307   1.000
    O757    O    0.78683   0.56984   0.81961   1.000
    O758    O    0.22968   0.34290   0.82237   1.000
    O759    O    0.72966   0.34288   0.82237   1.000
    O760    O    0.83989   0.55363   0.83087   1.000
    O761    O    0.88942   0.53797   0.83455   1.000
    O762    O    0.33983   0.55382   0.83096   1.000
    O763    O    0.38939   0.53828   0.83472   1.000
    O764    O    0.76296   0.33981   0.86512   1.000
    O765    O    0.74177   0.40646   0.86643   1.000
    O766    O    0.26299   0.33987   0.86515   1.000
    O767    O    0.24176   0.40650   0.86645   1.000
    O768    O    0.47756   0.30621   0.84000   1.000
    O769    O    0.43134   0.31292   0.86196   1.000
    O770    O    0.97753   0.30611   0.84005   1.000
    O771    O    0.93129   0.31289   0.86193   1.000
    O772    O    0.51741   0.38556   0.88278   1.000
    O773    O    0.01740   0.38541   0.88285   1.000
    O774    O    0.80067   0.57761   0.89141   1.000
    O775    O    0.30057   0.57772   0.89145   1.000
    O776    O    0.77918   0.28616   0.87064   1.000
    O777    O    0.27923   0.28624   0.87068   1.000
    O778    O    0.72260   0.46382   0.87242   1.000
    O779    O    0.22254   0.46384   0.87244   1.000
    O780    O    0.53471   0.49508   0.89515   1.000
    O781    O    0.03471   0.49491   0.89518   1.000
    O782    O    0.79591   0.33550   0.90998   1.000
    O783    O    0.75619   0.32300   0.91473   1.000
    O784    O    0.29595   0.33559   0.91000   1.000
    O785    O    0.25625   0.32308   0.91477   1.000
    O786    O    0.75856   0.48200   0.91933   1.000
    O787    O    0.70343   0.45851   0.92318   1.000
    O788    O    0.25851   0.48205   0.91935   1.000
    O789    O    0.20341   0.45850   0.92321   1.000
    O790    O    0.57789   0.43251   0.91962   1.000
    O791    O    0.65144   0.43958   0.93355   1.000
    O792    O    0.07790   0.43239   0.91968   1.000
    O793    O    0.15144   0.43952   0.93360   1.000
    O794    O    0.47772   0.46535   0.94647   1.000
    O795    O    0.97773   0.46525   0.94652   1.000
    O796    O    0.30672   0.49488   0.93631   1.000
    O797    O    0.80677   0.49479   0.93630   1.000
    O798    O    0.78866   0.54916   0.94019   1.000
    O799    O    0.76966   0.60560   0.94611   1.000
    O800    O    0.81085   0.60733   0.95836   1.000
    O801    O    0.28858   0.54924   0.94021   1.000
    O802    O    0.26952   0.60565   0.94611   1.000
    O803    O    0.31071   0.60745   0.95839   1.000
loop_
    _geom_bond_atom_site_label_1
    _geom_bond_atom_site_label_2
    _geom_bond_distance
    _geom_bond_site_symmetry_2
    _ccdc_geom_bond_type
    C119   O384      0.54958      .   S
    C267   O384      0.54958      .   S
    C118   O385      0.54956      .   S
    C266   O385      0.54956      .   S
    C363   O386      1.11248      .   S
    C1     O386      1.11248      .   S
    C363   O387      0.63846  1_554   S
    C213   O387      0.63846      .   S
    C362   O388      1.11394      .   S
    C0     O388      1.11394      .   S
    C362   O389      0.63847  1_554   S
    C212   O389      0.63847      .   S
    C121   O390      0.54939      .   S
    C267   O390      0.54939      .   S
    C120   O391      0.54939  1_655   S
    C266   O391      0.54939      .   S
    C278   O392      0.63282      .   S
    C372   O392      0.63282      .   S
    C278   O393      0.77094      .   S
    C264   O393      0.77094      .   S
    C278   O394      0.63848      .   S
    C374   O394      0.63848  1_556   S
    C279   O395      0.63282      .   S
    C373   O395      0.63282      .   S
    C279   O396      0.77101      .   S
    C265   O396      0.77101      .   S
    C279   O397      0.63848      .   S
    C375   O397      0.63848  1_556   S
    C349   O398      0.74580      .   S
    C267   O398      0.74580      .   S
    C349   O399      0.51634      .   S
    C131   O399      0.51634      .   S
    C349   O400      0.74407      .   S
    C264   O400      0.74407      .   S
    C349   O401      1.05987  1_554   S
    C7     O401      1.05987      .   S
    C348   O402      0.74583      .   S
    C266   O402      0.74583      .   S
    C348   O403      0.51635      .   S
    C130   O403      0.51635      .   S
    C348   O404      0.74404      .   S
    C265   O404      0.74404  1_655   S
    C348   O405      1.05957  1_554   S
    C6     O405      1.05957      .   S
    C112   O406      0.54906      .   S
    C263   O406      0.54906      .   S
    C113   O407      0.54873  1_655   S
    C262   O407      0.54873      .   S
    C267   O408      0.75501      .   S
    C269   O408      0.75501      .   S
    C266   O409      0.75499      .   S
    C268   O409      0.75499      .   S
    C114   O410      0.54970      .   S
    C262   O410      0.54970      .   S
    C115   O411      0.54986      .   S
    C263   O411      0.54986      .   S
    C1     O412      1.08690      .   S
    C373   O412      1.08690      .   S
    C1     O413      1.19806      .   S
    C325   O413      1.19806      .   S
    C1     O414      1.04258      .   S
    C359   O414      1.04258      .   S
    C1     O415      1.05388      .   S
    C337   O415      1.05388  1_556   S
    C0     O416      1.08726      .   S
    C372   O416      1.08726      .   S
    C0     O417      1.19305      .   S
    C324   O417      1.19305      .   S
    C0     O418      1.04147      .   S
    C358   O418      1.04147      .   S
    C0     O419      1.05979      .   S
    C336   O419      1.05979  1_556   S
    C264   O420      0.55155      .   S
    C116   O420      0.55155      .   S
    C264   O421      0.77168      .   S
    C260   O421      0.77168      .   S
    C265   O422      0.55127      .   S
    C117   O422      0.55127      .   S
    C265   O423      0.76711      .   S
    C261   O423      0.76711  1_455   S
    C262   O424      0.54930      .   S
    C110   O424      0.54930      .   S
    C262   O425      0.77117      .   S
    C261   O425      0.77117      .   S
    C263   O426      0.54925      .   S
    C111   O426      0.54925      .   S
    C263   O427      0.76511      .   S
    C260   O427      0.76511      .   S
    C187   O428      0.54376      .   S
    C319   O428      0.54376      .   S
    C186   O429      0.54375      .   S
    C318   O429      0.54375      .   S
    C122   O430      0.54583      .   S
    C270   O430      0.54583      .   S
    C123   O431      0.54582      .   S
    C271   O431      0.54582      .   S
    C269   O432      0.70027      .   S
    C271   O432      0.70027      .   S
    C269   O433      0.69963      .   S
    C273   O433      0.69963      .   S
    C268   O434      0.70028      .   S
    C270   O434      0.70028      .   S
    C268   O435      0.69962      .   S
    C272   O435      0.69962      .   S
    C359   O436      0.67503      .   S
    C319   O436      0.67503      .   S
    C359   O437      0.67733      .   S
    C321   O437      0.67733      .   S
    C358   O438      0.67504      .   S
    C318   O438      0.67504      .   S
    C358   O439      0.67732      .   S
    C320   O439      0.67732      .   S
    C319   O440      0.69526      .   S
    C317   O440      0.69526      .   S
    C318   O441      0.69540      .   S
    C316   O441      0.69540      .   S
    C260   O442      0.54967      .   S
    C108   O442      0.54967      .   S
    C260   O443      0.76487      .   S
    C259   O443      0.76487      .   S
    C261   O444      0.53484  1_455   S
    C109   O444      0.53484      .   S
    C261   O445      0.77690      .   S
    C258   O445      0.77690      .   S
    C271   O446      0.69414      .   S
    C277   O446      0.69414      .   S
    C270   O447      0.69412      .   S
    C276   O447      0.69412      .   S
    C124   O448      0.54514      .   S
    C273   O448      0.54514      .   S
    C125   O449      0.54507      .   S
    C272   O449      0.54507  1_455   S
    C102   O450      0.55000      .   S
    C258   O450      0.55000      .   S
    C103   O451      0.54991      .   S
    C259   O451      0.54991      .   S
    C273   O452      0.69538      .   S
    C275   O452      0.69538      .   S
    C272   O453      0.69487      .   S
    C274   O453      0.69487      .   S
    C189   O454      0.54406      .   S
    C321   O454      0.54406      .   S
    C188   O455      0.54396      .   S
    C320   O455      0.54396      .   S
    C321   O456      0.69415      .   S
    C315   O456      0.69415      .   S
    C320   O457      0.69414      .   S
    C314   O457      0.69414      .   S
    C185   O458      0.54503      .   S
    C317   O458      0.54503      .   S
    C184   O459      0.54514      .   S
    C316   O459      0.54514      .   S
    C317   O460      0.69993      .   S
    C313   O460      0.69993      .   S
    C316   O461      0.69969      .   S
    C312   O461      0.69969      .   S
    C258   O462      0.54979      .   S
    C104   O462      0.54979      .   S
    C258   O463      0.54919      .   S
    C106   O463      0.54919      .   S
    C259   O464      0.55013      .   S
    C105   O464      0.55013      .   S
    C259   O465      0.54915      .   S
    C107   O465      0.54915      .   S
    C141   O466      0.54926      .   S
    C285   O466      0.54926      .   S
    C140   O467      0.54929      .   S
    C284   O467      0.54929      .   S
    C277   O468      0.54405      .   S
    C129   O468      0.54405      .   S
    C277   O469      0.67728      .   S
    C351   O469      0.67728      .   S
    C276   O470      0.54405      .   S
    C128   O470      0.54405      .   S
    C276   O471      0.67728      .   S
    C350   O471      0.67728      .   S
    C315   O472      0.70029      .   S
    C313   O472      0.70029      .   S
    C315   O473      0.54585      .   S
    C183   O473      0.54585      .   S
    C314   O474      0.70031      .   S
    C312   O474      0.70031      .   S
    C314   O475      0.54583      .   S
    C182   O475      0.54583      .   S
    C137   O476      0.54924      .   S
    C281   O476      0.54924      .   S
    C136   O477      0.54919      .   S
    C280   O477      0.54919      .   S
    C313   O478      0.75502      .   S
    C311   O478      0.75502      .   S
    C312   O479      0.75503      .   S
    C310   O479      0.75503      .   S
    C275   O480      0.67504      .   S
    C351   O480      0.67504      .   S
    C275   O481      0.54379      .   S
    C127   O481      0.54379      .   S
    C274   O482      0.67517      .   S
    C350   O482      0.67517      .   S
    C274   O483      0.54422      .   S
    C126   O483      0.54422  1_655   S
    C285   O484      0.54907      .   S
    C143   O484      0.54907      .   S
    C285   O485      0.54983      .   S
    C145   O485      0.54983      .   S
    C285   O486      0.76512      .   S
    C283   O486      0.76512      .   S
    C284   O487      0.54873      .   S
    C142   O487      0.54873      .   S
    C284   O488      0.54975      .   S
    C144   O488      0.54975      .   S
    C284   O489      0.76512      .   S
    C282   O489      0.76512      .   S
    C351   O490      1.04148      .   S
    C3     O490      1.04148      .   S
    C350   O491      1.04158      .   S
    C2     O491      1.04158      .   S
    C328   O492      1.19335      .   S
    C4     O492      1.19335      .   S
    C329   O493      1.19333      .   S
    C5     O493      1.19333      .   S
    C139   O494      0.54964      .   S
    C283   O494      0.54964      .   S
    C138   O495      0.54966      .   S
    C282   O495      0.54966      .   S
    C181   O496      0.54940      .   S
    C311   O496      0.54940      .   S
    C180   O497      0.54946      .   S
    C310   O497      0.54946      .   S
    C281   O498      0.76514      .   S
    C283   O498      0.76514      .   S
    C281   O499      0.54974      .   S
    C135   O499      0.54974      .   S
    C281   O500      0.55000      .   S
    C133   O500      0.55000      .   S
    C280   O501      0.76516      .   S
    C282   O501      0.76516      .   S
    C280   O502      0.54974      .   S
    C134   O502      0.54974      .   S
    C280   O503      0.54999      .   S
    C132   O503      0.54999      .   S
    C311   O504      0.54957      .   S
    C179   O504      0.54957      .   S
    C311   O505      0.74577      .   S
    C357   O505      0.74577      .   S
    C310   O506      0.54956      .   S
    C178   O506      0.54956      .   S
    C310   O507      0.74577      .   S
    C356   O507      0.74577      .   S
    C165   O508      0.54975      .   S
    C303   O508      0.54975      .   S
    C164   O509      0.54976      .   S
    C302   O509      0.54976      .   S
    C283   O510      0.77173      .   S
    C287   O510      0.77173      .   S
    C282   O511      0.77167      .   S
    C286   O511      0.77167      .   S
    C59    O512      0.54955      .   S
    C223   O512      0.54955      .   S
    C58    O513      0.55008      .   S
    C222   O513      0.55008      .   S
    C61    O514      0.54940      .   S
    C223   O514      0.54940      .   S
    C60    O515      0.54939      .   S
    C222   O515      0.54939      .   S
    C177   O516      0.55153      .   S
    C309   O516      0.55153      .   S
    C176   O517      0.55155      .   S
    C308   O517      0.55155      .   S
    C82    O518      0.54904      .   S
    C240   O518      0.54904      .   S
    C83    O519      0.54907      .   S
    C241   O519      0.54907      .   S
    C80    O520      0.54923      .   S
    C240   O520      0.54923      .   S
    C81    O521      0.54928      .   S
    C241   O521      0.54928      .   S
    C64    O522      0.54514      .   S
    C228   O522      0.54514      .   S
    C65    O523      0.54508      .   S
    C229   O523      0.54508      .   S
    C223   O524      0.75503      .   S
    C225   O524      0.75503      .   S
    C223   O525      0.74584      .   S
    C341   O525      0.74584      .   S
    C222   O526      0.75505      .   S
    C224   O526      0.75505      .   S
    C222   O527      0.74585      .   S
    C340   O527      0.74585      .   S
    C377   O528      1.08689      .   S
    C3     O528      1.08689      .   S
    C377   O529      0.63281      .   S
    C301   O529      0.63281      .   S
    C376   O530      1.08673      .   S
    C2     O530      1.08673      .   S
    C376   O531      0.63280      .   S
    C300   O531      0.63280      .   S
    C163   O532      0.55000      .   S
    C303   O532      0.55000      .   S
    C162   O533      0.55002      .   S
    C302   O533      0.55002      .   S
    C84    O534      0.54985      .   S
    C240   O534      0.54985      .   S
    C85    O535      0.54984      .   S
    C241   O535      0.54984      .   S
    C303   O536      0.54921      .   S
    C167   O536      0.54921      .   S
    C303   O537      0.76516      .   S
    C305   O537      0.76516      .   S
    C302   O538      0.54921      .   S
    C166   O538      0.54921      .   S
    C302   O539      0.76516      .   S
    C304   O539      0.76516      .   S
    C229   O540      0.69961      .   S
    C225   O540      0.69961      .   S
    C229   O541      0.69557      .   S
    C231   O541      0.69557      .   S
    C228   O542      0.69970      .   S
    C224   O542      0.69970      .   S
    C228   O543      0.69542      .   S
    C230   O543      0.69542      .   S
    C240   O544      0.76514      .   S
    C238   O544      0.76514      .   S
    C241   O545      0.76512      .   S
    C239   O545      0.76512      .   S
    C225   O546      0.70027      .   S
    C227   O546      0.70027      .   S
    C224   O547      0.70027      .   S
    C226   O547      0.70027      .   S
    C357   O548      0.74410      .   S
    C309   O548      0.74410      .   S
    C357   O549      0.51626      .   S
    C191   O549      0.51626      .   S
    C357   O550      1.05956  1_565   S
    C11    O550      1.05956      .   S
    C356   O551      0.74410      .   S
    C308   O551      0.74410      .   S
    C356   O552      0.51635      .   S
    C190   O552      0.51635      .   S
    C356   O553      1.05975  1_565   S
    C10    O553      1.05975      .   S
    C309   O554      0.77168      .   S
    C305   O554      0.77168      .   S
    C309   O555      0.77100      .   S
    C323   O555      0.77100      .   S
    C308   O556      0.77168      .   S
    C304   O556      0.77168      .   S
    C308   O557      0.77098      .   S
    C322   O557      0.77098      .   S
    C3     O558      1.11402      .   S
    C367   O558      1.11402      .   S
    C3     O559      1.05996      .   S
    C341   O559      1.05996      .   S
    C3     O560      1.19319      .   S
    C327   O560      1.19319      .   S
    C66    O561      0.54349      .   S
    C230   O561      0.54349      .   S
    C2     O562      1.11395      .   S
    C366   O562      1.11395      .   S
    C2     O563      1.06002      .   S
    C340   O563      1.06002      .   S
    C2     O564      1.19315      .   S
    C326   O564      1.19315      .   S
    C67    O565      0.54378      .   S
    C231   O565      0.54378      .   S
    C231   O566      0.67504      .   S
    C343   O566      0.67504      .   S
    C230   O567      0.67503      .   S
    C342   O567      0.67503      .   S
    C287   O568      0.77093      .   S
    C301   O568      0.77093      .   S
    C287   O569      0.55150      .   S
    C147   O569      0.55150      .   S
    C287   O570      0.74406      .   S
    C353   O570      0.74406      .   S
    C286   O571      0.77095      .   S
    C300   O571      0.77095      .   S
    C286   O572      0.55150      .   S
    C146   O572      0.55150      .   S
    C286   O573      0.74404      .   S
    C352   O573      0.74404      .   S
    C333   O574      1.19316      .   S
    C9     O574      1.19316      .   S
    C332   O575      1.19318      .   S
    C8     O575      1.19318      .   S
    C227   O576      0.54583      .   S
    C63    O576      0.54583      .   S
    C227   O577      0.69413      .   S
    C233   O577      0.69413      .   S
    C226   O578      0.54585      .   S
    C62    O578      0.54585      .   S
    C226   O579      0.69411      .   S
    C232   O579      0.69411      .   S
    C301   O580      0.63845      .   S
    C379   O580      0.63845      .   S
    C300   O581      0.63847      .   S
    C378   O581      0.63847      .   S
    C4     O582      1.11362      .   S
    C370   O582      1.11362      .   S
    C4     O583      1.08717      .   S
    C381   O583      1.08717      .   S
    C4     O584      1.04130      .   S
    C354   O584      1.04130      .   S
    C4     O585      1.05977      .   S
    C344   O585      1.05977  1_545   S
    C5     O586      1.11356      .   S
    C371   O586      1.11356      .   S
    C5     O587      1.08711      .   S
    C380   O587      1.08711  1_455   S
    C5     O588      1.04070      .   S
    C355   O588      1.04070      .   S
    C5     O589      1.05965      .   S
    C345   O589      1.05965  1_545   S
    C161   O590      0.51632      .   S
    C353   O590      0.51632      .   S
    C305   O591      0.54966      .   S
    C169   O591      0.54966      .   S
    C305   O592      0.76513      .   S
    C307   O592      0.76513      .   S
    C160   O593      0.51631      .   S
    C352   O593      0.51631      .   S
    C304   O594      0.54967      .   S
    C168   O594      0.54967      .   S
    C304   O595      0.76498      .   S
    C306   O595      0.76498      .   S
    C343   O596      0.67729      .   S
    C233   O596      0.67729      .   S
    C343   O597      1.04125      .   S
    C11    O597      1.04125      .   S
    C342   O598      0.67727      .   S
    C232   O598      0.67727      .   S
    C342   O599      1.04146      .   S
    C10    O599      1.04146      .   S
    C366   O600      0.63851      .   S
    C234   O600      0.63851      .   S
    C367   O601      0.63850      .   S
    C235   O601      0.63850      .   S
    C233   O602      0.54406      .   S
    C69    O602      0.54406      .   S
    C232   O603      0.54405      .   S
    C68    O603      0.54405      .   S
    C371   O604      0.63834  1_565   S
    C257   O604      0.63834      .   S
    C370   O605      0.63823  1_565   S
    C256   O605      0.63823      .   S
    C323   O606      0.63282      .   S
    C381   O606      0.63282      .   S
    C323   O607      0.63837      .   S
    C383   O607      0.63837  1_545   S
    C322   O608      0.63282      .   S
    C380   O608      0.63282      .   S
    C322   O609      0.63837      .   S
    C382   O609      0.63837  1_545   S
    C341   O610      0.51633      .   S
    C71    O610      0.51633      .   S
    C341   O611      0.74406      .   S
    C221   O611      0.74406      .   S
    C340   O612      0.51634      .   S
    C70    O612      0.51634      .   S
    C340   O613      0.74402      .   S
    C220   O613      0.74402      .   S
    C158   O614      0.54404  1_455   S
    C299   O614      0.54404      .   S
    C159   O615      0.54406      .   S
    C298   O615      0.54406      .   S
    C369   O616      0.63284      .   S
    C257   O616      0.63284      .   S
    C369   O617      1.08715      .   S
    C11    O617      1.08715      .   S
    C368   O618      0.63282      .   S
    C256   O618      0.63282      .   S
    C368   O619      1.08707      .   S
    C10    O619      1.08707      .   S
    C353   O620      1.06010      .   S
    C9     O620      1.06010      .   S
    C353   O621      0.74550      .   S
    C289   O621      0.74550      .   S
    C352   O622      1.06000      .   S
    C8     O622      1.06000      .   S
    C352   O623      0.74585      .   S
    C288   O623      0.74585      .   S
    C257   O624      0.77098      .   S
    C243   O624      0.77098      .   S
    C256   O625      0.77100      .   S
    C242   O625      0.77100      .   S
    C383   O626      1.11350      .   S
    C11    O626      1.11350      .   S
    C382   O627      1.11351      .   S
    C10    O627      1.11351      .   S
    C299   O628      0.67750      .   S
    C355   O628      0.67750      .   S
    C299   O629      0.69413      .   S
    C293   O629      0.69413      .   S
    C298   O630      0.67729      .   S
    C354   O630      0.67729      .   S
    C298   O631      0.69409      .   S
    C292   O631      0.69409      .   S
    C379   O632      1.11395      .   S
    C9     O632      1.11395      .   S
    C378   O633      1.11398      .   S
    C8     O633      1.11398      .   S
    C79    O634      0.54966      .   S
    C239   O634      0.54966      .   S
    C78    O635      0.54967      .   S
    C238   O635      0.54967      .   S
    C355   O636      0.67531      .   S
    C297   O636      0.67531      .   S
    C354   O637      0.67504      .   S
    C296   O637      0.67504      .   S
    C238   O638      0.77173      .   S
    C242   O638      0.77173      .   S
    C238   O639      0.76513      .   S
    C236   O639      0.76513      .   S
    C239   O640      0.77171      .   S
    C243   O640      0.77171      .   S
    C239   O641      0.76515      .   S
    C237   O641      0.76515      .   S
    C11    O642      1.19336      .   S
    C335   O642      1.19336      .   S
    C10    O643      1.19327      .   S
    C334   O643      1.19327      .   S
    C57    O644      0.55148      .   S
    C221   O644      0.55148      .   S
    C56    O645      0.55151      .   S
    C220   O645      0.55151      .   S
    C235   O646      0.77094      .   S
    C221   O646      0.77094      .   S
    C235   O647      0.63279      .   S
    C364   O647      0.63279      .   S
    C234   O648      0.77091      .   S
    C220   O648      0.77091      .   S
    C234   O649      0.61133  1_455   S
    C365   O649      0.61133      .   S
    C153   O650      0.54584      .   S
    C293   O650      0.54584      .   S
    C152   O651      0.54583      .   S
    C292   O651      0.54583      .   S
    C293   O652      0.70028      .   S
    C291   O652      0.70028      .   S
    C292   O653      0.70027      .   S
    C290   O653      0.70027      .   S
    C221   O654      0.77116      .   S
    C217   O654      0.77116      .   S
    C220   O655      0.77174      .   S
    C216   O655      0.77174      .   S
    C296   O656      0.54378      .   S
    C156   O656      0.54378      .   S
    C296   O657      0.69539      .   S
    C294   O657      0.69539      .   S
    C297   O658      0.54378      .   S
    C157   O658      0.54378      .   S
    C297   O659      0.69538      .   S
    C295   O659      0.69538      .   S
    C9     O660      1.08074      .   S
    C365   O660      1.08074      .   S
    C9     O661      1.04172      .   S
    C339   O661      1.04172      .   S
    C8     O662      1.08679      .   S
    C364   O662      1.08679      .   S
    C8     O663      1.04155      .   S
    C338   O663      1.04155      .   S
    C100   O664      0.51633      .   S
    C344   O664      0.51633      .   S
    C101   O665      0.51636      .   S
    C345   O665      0.51636      .   S
    C76    O666      0.54969      .   S
    C236   O666      0.54969      .   S
    C77    O667      0.54917      .   S
    C237   O667      0.54917      .   S
    C242   O668      0.74408      .   S
    C344   O668      0.74408      .   S
    C242   O669      0.55148      .   S
    C86    O669      0.55148      .   S
    C243   O670      0.74408      .   S
    C345   O670      0.74408      .   S
    C243   O671      0.55150      .   S
    C87    O671      0.55150      .   S
    C344   O672      0.74582      .   S
    C244   O672      0.74582      .   S
    C345   O673      0.74577      .   S
    C245   O673      0.74577      .   S
    C291   O674      0.69971      .   S
    C295   O674      0.69971      .   S
    C291   O675      0.75449      .   S
    C289   O675      0.75449      .   S
    C290   O676      0.69968      .   S
    C294   O676      0.69968      .   S
    C290   O677      0.75505      .   S
    C288   O677      0.75505      .   S
    C307   O678      0.54989      .   S
    C175   O678      0.54989      .   S
    C307   O679      0.54928      .   S
    C171   O679      0.54928      .   S
    C307   O680      0.54906      .   S
    C173   O680      0.54906      .   S
    C306   O681      0.54980      .   S
    C174   O681      0.54980      .   S
    C306   O682      0.54942      .   S
    C170   O682      0.54942      .   S
    C306   O683      0.54912      .   S
    C172   O683      0.54912      .   S
    C294   O684      0.54515      .   S
    C154   O684      0.54515      .   S
    C295   O685      0.54517      .   S
    C155   O685      0.54517      .   S
    C236   O686      0.55002      .   S
    C73    O686      0.55002      .   S
    C236   O687      0.54973      .   S
    C74    O687      0.54973      .   S
    C237   O688      0.54995      .   S
    C72    O688      0.54995  1_455   S
    C237   O689      0.54977      .   S
    C75    O689      0.54977      .   S
    C289   O690      0.54978      .   S
    C151   O690      0.54978      .   S
    C289   O691      0.55009      .   S
    C149   O691      0.55009      .   S
    C288   O692      0.54938      .   S
    C150   O692      0.54938      .   S
    C288   O693      0.54955      .   S
    C148   O693      0.54955      .   S
    C43    O694      0.55001      .   S
    C215   O694      0.55001      .   S
    C42    O695      0.54997      .   S
    C214   O695      0.54997      .   S
    C45    O696      0.54975      .   S
    C215   O696      0.54975      .   S
    C44    O697      0.54975      .   S
    C214   O697      0.54975      .   S
    C217   O698      0.76543      .   S
    C215   O698      0.76543      .   S
    C217   O699      0.54998      .   S
    C49    O699      0.54998      .   S
    C217   O700      0.76507      .   S
    C219   O700      0.76507      .   S
    C216   O701      0.76511      .   S
    C214   O701      0.76511      .   S
    C216   O702      0.54964      .   S
    C48    O702      0.54964      .   S
    C216   O703      0.76518      .   S
    C218   O703      0.76518      .   S
    C88    O704      0.54957      .   S
    C244   O704      0.54957      .   S
    C89    O705      0.54957      .   S
    C245   O705      0.54957      .   S
    C55    O706      0.54984      .   S
    C219   O706      0.54984      .   S
    C54    O707      0.54948      .   S
    C218   O707      0.54948      .   S
    C244   O708      0.54939      .   S
    C90    O708      0.54939      .   S
    C244   O709      0.75504      .   S
    C246   O709      0.75504      .   S
    C245   O710      0.54943      .   S
    C91    O710      0.54943      .   S
    C245   O711      0.75503      .   S
    C247   O711      0.75503      .   S
    C215   O712      0.54919      .   S
    C47    O712      0.54919      .   S
    C214   O713      0.54923      .   S
    C46    O713      0.54923      .   S
    C36    O714      0.54379      .   S
    C208   O714      0.54379      .   S
    C37    O715      0.54347      .   S
    C209   O715      0.54347      .   S
    C53    O716      0.54906      .   S
    C219   O716      0.54906      .   S
    C52    O717      0.54879      .   S
    C218   O717      0.54879      .   S
    C339   O718      0.67495      .   S
    C209   O718      0.67495      .   S
    C339   O719      0.67673      .   S
    C211   O719      0.67673      .   S
    C338   O720      0.67506      .   S
    C208   O720      0.67506      .   S
    C338   O721      0.67730      .   S
    C210   O721      0.67730      .   S
    C219   O722      0.54927      .   S
    C51    O722      0.54927      .   S
    C218   O723      0.54982      .   S
    C50    O723      0.54982      .   S
    C93    O724      0.54581      .   S
    C249   O724      0.54581      .   S
    C92    O725      0.54583      .   S
    C248   O725      0.54583      .   S
    C39    O726      0.54385      .   S
    C211   O726      0.54385      .   S
    C38    O727      0.54406      .   S
    C210   O727      0.54406      .   S
    C209   O728      0.69575      .   S
    C207   O728      0.69575      .   S
    C208   O729      0.69537      .   S
    C206   O729      0.69537      .   S
    C246   O730      0.70031      .   S
    C249   O730      0.70031      .   S
    C246   O731      0.69970      .   S
    C250   O731      0.69970      .   S
    C247   O732      0.70025  1_655   S
    C248   O732      0.70025      .   S
    C247   O733      0.69968      .   S
    C251   O733      0.69968      .   S
    C249   O734      0.69416      .   S
    C255   O734      0.69416      .   S
    C248   O735      0.69416      .   S
    C254   O735      0.69416      .   S
    C17    O736      0.54919      .   S
    C193   O736      0.54919      .   S
    C16    O737      0.54919      .   S
    C192   O737      0.54919      .   S
    C211   O738      0.69488      .   S
    C205   O738      0.69488      .   S
    C210   O739      0.69420      .   S
    C204   O739      0.69420      .   S
    C15    O740      0.54975      .   S
    C193   O740      0.54975      .   S
    C14    O741      0.54975      .   S
    C192   O741      0.54975      .   S
    C193   O742      0.55000      .   S
    C13    O742      0.55000      .   S
    C193   O743      0.76515      .   S
    C195   O743      0.76515      .   S
    C192   O744      0.55000      .   S
    C12    O744      0.55000      .   S
    C192   O745      0.76516      .   S
    C194   O745      0.76516      .   S
    C251   O746      0.54511      .   S
    C95    O746      0.54511      .   S
    C251   O747      0.69538      .   S
    C253   O747      0.69538      .   S
    C250   O748      0.54514      .   S
    C94    O748      0.54514      .   S
    C250   O749      0.69541      .   S
    C252   O749      0.69541      .   S
    C255   O750      0.54407      .   S
    C99    O750      0.54407      .   S
    C255   O751      0.67728      .   S
    C347   O751      0.67728      .   S
    C254   O752      0.54407      .   S
    C98    O752      0.54407      .   S
    C254   O753      0.67732      .   S
    C346   O753      0.67732      .   S
    C206   O754      0.54514      .   S
    C34    O754      0.54514      .   S
    C206   O755      0.69963      .   S
    C202   O755      0.69963      .   S
    C207   O756      0.54515      .   S
    C35    O756      0.54515      .   S
    C207   O757      0.69969      .   S
    C203   O757      0.69969      .   S
    C18    O758      0.54977      .   S
    C194   O758      0.54977      .   S
    C19    O759      0.54966      .   S
    C195   O759      0.54966      .   S
    C205   O760      0.70028      .   S
    C203   O760      0.70028      .   S
    C205   O761      0.54579      .   S
    C33    O761      0.54579      .   S
    C204   O762      0.70027      .   S
    C202   O762      0.70027      .   S
    C204   O763      0.54584      .   S
    C32    O763      0.54584      .   S
    C195   O764      0.76512      .   S
    C197   O764      0.76512      .   S
    C195   O765      0.77170      .   S
    C199   O765      0.77170      .   S
    C194   O766      0.76511      .   S
    C196   O766      0.76511      .   S
    C194   O767      0.77169      .   S
    C198   O767      0.77169      .   S
    C252   O768      0.67505      .   S
    C347   O768      0.67505      .   S
    C252   O769      0.54377      .   S
    C96    O769      0.54377      .   S
    C253   O770      0.67498      .   S
    C346   O770      0.67498  1_455   S
    C253   O771      0.54378      .   S
    C97    O771      0.54378      .   S
    C347   O772      1.04151      .   S
    C7     O772      1.04151      .   S
    C346   O773      1.04139      .   S
    C6     O773      1.04139      .   S
    C203   O774      0.75498      .   S
    C201   O774      0.75498      .   S
    C202   O775      0.75498      .   S
    C200   O775      0.75498      .   S
    C21    O776      0.54925      .   S
    C197   O776      0.54925      .   S
    C20    O777      0.54925      .   S
    C196   O777      0.54925      .   S
    C27    O778      0.55155      .   S
    C199   O778      0.55155      .   S
    C26    O779      0.55155      .   S
    C198   O779      0.55155      .   S
    C331   O780      1.19313      .   S
    C7     O780      1.19313      .   S
    C330   O781      1.19322      .   S
    C6     O781      1.19322      .   S
    C197   O782      0.54983      .   S
    C25    O782      0.54983      .   S
    C197   O783      0.54910      .   S
    C23    O783      0.54910      .   S
    C196   O784      0.54985      .   S
    C24    O784      0.54985      .   S
    C196   O785      0.54908      .   S
    C22    O785      0.54908      .   S
    C199   O786      0.74408      .   S
    C337   O786      0.74408      .   S
    C199   O787      0.77095      .   S
    C213   O787      0.77095      .   S
    C198   O788      0.74408      .   S
    C336   O788      0.74408      .   S
    C198   O789      0.77096      .   S
    C212   O789      0.77096      .   S
    C361   O790      1.08726      .   S
    C7     O790      1.08726      .   S
    C361   O791      0.63283      .   S
    C213   O791      0.63283      .   S
    C360   O792      1.08719      .   S
    C6     O792      1.08719      .   S
    C360   O793      0.63282      .   S
    C212   O793      0.63282      .   S
    C7     O794      1.11387      .   S
    C374   O794      1.11387      .   S
    C6     O795      1.11376  1_455   S
    C375   O795      1.11376      .   S
    C40    O796      0.51633      .   S
    C336   O796      0.51633      .   S
    C41    O797      0.51634      .   S
    C337   O797      0.51634      .   S
    C201   O798      0.74585      .   S
    C337   O798      0.74585      .   S
    C201   O799      0.54940      .   S
    C31    O799      0.54940      .   S
    C201   O800      0.54957      .   S
    C29    O800      0.54957      .   S
    C200   O801      0.74583      .   S
    C336   O801      0.74583      .   S
    C200   O802      0.54940      .   S
    C30    O802      0.54940      .   S
    C200   O803      0.54944      .   S
    C28    O803      0.54944      .   S
