# CIF file generated by openbabel 2.4.90, see http://openbabel.sf.net
data_I
_chemical_name_common ''
_cell_length_a 9.796
_cell_length_b 11.607
_cell_length_c 13.79
_cell_angle_alpha 65.865
_cell_angle_beta 88.867
_cell_angle_gamma 81.927
_space_group_name_H-M_alt 'P 1'
_space_group_name_Hall 'P 1'
loop_
    _symmetry_equiv_pos_as_xyz
    x,y,z
loop_
    _atom_site_label
    _atom_site_type_symbol
    _atom_site_fract_x
    _atom_site_fract_y
    _atom_site_fract_z
    _atom_site_occupancy
    N0      N    0.49993   0.50003   0.00000   1.000
    N1      N    0.49993   0.00003   0.99999   1.000
    N2      N    0.99995   0.50002   0.49997   1.000
    Zr3     Zr   0.83067   0.13141   0.50967   1.000
    O4      O    0.72986   0.23616   0.36443   1.000
    O5      O    0.73089   0.09338   0.64938   1.000
    Zr6     Zr   0.49994   0.00002   0.49999   1.000
    O7      O    0.49145   0.85208   0.64127   1.000
    O8      O    0.49111   0.99250   0.35868   1.000
    O9      O    0.50843   0.14796   0.35871   1.000
    O10     O    0.50877   0.00754   0.64130   1.000
    O11     O    0.65372   0.86097   0.50053   1.000
    O12     O    0.34617   0.13907   0.49944   1.000
    Zr13    Zr   0.16923   0.86862   0.49031   1.000
    O14     O    0.27002   0.76389   0.63556   1.000
    O15     O    0.26899   0.90665   0.35060   1.000
    O16     O    0.88791   0.21294   0.50611   1.000
    O17     O    0.11198   0.78710   0.49387   1.000
loop_
    _geom_bond_atom_site_label_1
    _geom_bond_atom_site_label_2
    _geom_bond_distance
    _geom_bond_site_symmetry_2
    _ccdc_geom_bond_type
    Zr3    O4        2.05289      .   S
    N0     O4        5.06283      .   S
    Zr3    O5        2.05257      .   S
    N1     O5        5.06372      .   S
    Zr6    O7        2.01224  1_545   S
    N0     O7        4.95639  1_554   S
    Zr6    O8        1.99006  1_545   S
    N1     O8        4.91054  1_546   S
    Zr6    O9        2.01223      .   S
    N0     O9        4.95636      .   S
    Zr6    O10       1.99005      .   S
    N1     O10       4.91054      .   S
    Zr6    O11       2.04494  1_545   S
    N2     O11       5.00896      .   S
    Zr6    O12       2.04490      .   S
    N2     O12       5.00889  1_655   S
    Zr13   O14       2.05290      .   S
    N0     O14       5.06285  1_554   S
    Zr13   O15       2.05254      .   S
    N1     O15       5.06364  1_546   S
    Zr3    O16       1.14986      .   S
    N2     O16       3.62054      .   S
    Zr13   O17       1.14985      .   S
    N2     O17       3.62052  1_655   S
