# CIF file generated by openbabel 2.4.90, see http://openbabel.sf.net
data_I
_chemical_name_common ''
_cell_length_a 9.796
_cell_length_b 11.607
_cell_length_c 13.79
_cell_angle_alpha 65.865
_cell_angle_beta 88.867
_cell_angle_gamma 81.927
_space_group_name_H-M_alt 'P 1'
_space_group_name_Hall 'P 1'
loop_
    _symmetry_equiv_pos_as_xyz
    x,y,z
loop_
    _atom_site_label
    _atom_site_type_symbol
    _atom_site_fract_x
    _atom_site_fract_y
    _atom_site_fract_z
    _atom_site_occupancy
    N0      N    0.49993   0.50003   0.00000   1.000
    N1      N    0.49993   0.00003   0.99999   1.000
    N2      N    0.99995   0.50002   0.49997   1.000
    Zr3     Zr   0.83067   0.13141   0.50967   1.000
    O4      O    0.72986   0.23616   0.36443   1.000
    O5      O    0.73089   0.09338   0.64938   1.000
    O6      O    0.87553   0.19790   0.50665   1.000
    O7      O    0.90028   0.22797   0.50556   1.000
    Zr8     Zr   0.49994   0.00002   0.49999   1.000
    O9      O    0.49145   0.85208   0.64127   1.000
    O10     O    0.49111   0.99250   0.35868   1.000
    O11     O    0.50843   0.14796   0.35871   1.000
    O12     O    0.50877   0.00754   0.64130   1.000
    O13     O    0.65372   0.86097   0.50053   1.000
    O14     O    0.34617   0.13907   0.49944   1.000
    Zr15    Zr   0.16923   0.86862   0.49031   1.000
    O16     O    0.27002   0.76389   0.63556   1.000
    O17     O    0.26899   0.90665   0.35060   1.000
    O18     O    0.09961   0.77206   0.49441   1.000
    O19     O    0.12436   0.80213   0.49332   1.000
loop_
    _geom_bond_atom_site_label_1
    _geom_bond_atom_site_label_2
    _geom_bond_distance
    _geom_bond_site_symmetry_2
    _ccdc_geom_bond_type
    Zr3    O4        2.05289      .   S
    N0     O4        5.06283      .   S
    Zr3    O5        2.05257      .   S
    N1     O5        5.06372      .   S
    Zr3    O6        0.92669      .   S
    N2     O6        3.83703      .   S
    Zr3    O7        1.37320      .   S
    N2     O7        3.40498      .   S
    Zr8    O9        2.01224  1_545   S
    N0     O9        4.95639  1_554   S
    Zr8    O10       1.99006  1_545   S
    N1     O10       4.91054  1_546   S
    Zr8    O11       2.01223      .   S
    N0     O11       4.95636      .   S
    Zr8    O12       1.99005      .   S
    N1     O12       4.91054      .   S
    Zr8    O13       2.04494  1_545   S
    N2     O13       5.00896      .   S
    Zr8    O14       2.04490      .   S
    N2     O14       5.00889  1_655   S
    Zr15   O16       2.05290      .   S
    N0     O16       5.06285  1_554   S
    Zr15   O17       2.05254      .   S
    N1     O17       5.06364  1_546   S
    Zr15   O18       1.37319      .   S
    N2     O18       3.40496  1_655   S
    Zr15   O19       0.92669      .   S
    N2     O19       3.83701  1_655   S
