# CIF file generated by openbabel 2.4.90, see http://openbabel.sf.net
data_I
_chemical_name_common ''
_cell_length_a 9.796
_cell_length_b 11.607
_cell_length_c 13.79
_cell_angle_alpha 65.865
_cell_angle_beta 88.867
_cell_angle_gamma 81.927
_space_group_name_H-M_alt 'P 1'
_space_group_name_Hall 'P 1'
loop_
    _symmetry_equiv_pos_as_xyz
    x,y,z
loop_
    _atom_site_label
    _atom_site_type_symbol
    _atom_site_fract_x
    _atom_site_fract_y
    _atom_site_fract_z
    _atom_site_occupancy
    Zr0     Zr   0.16923   0.86862   0.49031   1.000
    Zr1     Zr   0.83067   0.13141   0.50967   1.000
    Zr2     Zr   0.49994   0.00002   0.49999   1.000
    N3      N    0.49993   0.50003   0.00000   1.000
    O4      O    0.48295   0.70415   0.78256   1.000
    O5      O    0.37081   0.65916   0.78081   1.000
    O6      O    0.51693   0.29591   0.21744   1.000
    O7      O    0.62906   0.34090   0.21919   1.000
    N8      N    0.49993   0.00003   0.99999   1.000
    O9      O    0.36876   0.94469   0.21090   1.000
    O10     O    0.48228   0.98498   0.21737   1.000
    O11     O    0.63112   0.05535   0.78909   1.000
    O12     O    0.51760   0.01506   0.78261   1.000
    N13     N    0.99995   0.50002   0.49997   1.000
    O14     O    0.80749   0.72192   0.50107   1.000
    O15     O    0.92040   0.26439   0.50363   1.000
    O16     O    0.02999   0.67551   0.49851   1.000
    O17     O    0.19240   0.27812   0.49889   1.000
    O18     O    0.07949   0.73565   0.49634   1.000
    O19     O    0.96990   0.32454   0.50146   1.000
loop_
    _geom_bond_atom_site_label_1
    _geom_bond_atom_site_label_2
    _geom_bond_distance
    _geom_bond_site_symmetry_2
    _ccdc_geom_bond_type
    N3     O4        2.95488  1_554   S
    Zr2    O4        4.02449  1_545   S
    N3     O5        3.01285  1_554   S
    Zr0    O5        4.10581      .   S
    N3     O6        2.95487      .   S
    Zr2    O6        4.02445      .   S
    N3     O7        3.01285      .   S
    Zr1    O7        4.10578      .   S
    N8     O9        3.01311  1_546   S
    Zr0    O9        4.10507      .   S
    N8     O10       2.93366  1_546   S
    Zr2    O10       3.98011  1_545   S
    N8     O11       3.01316      .   S
    Zr1    O11       4.10514      .   S
    N8     O12       2.93366      .   S
    Zr2    O12       3.98010      .   S
    N13    O14       2.97573      .   S
    Zr2    O14       4.08989  1_545   S
    N13    O15       2.92816      .   S
    Zr1    O15       1.85338      .   S
    N13    O16       2.09047  1_655   S
    Zr0    O16       2.74638      .   S
    N13    O17       2.97570  1_655   S
    Zr2    O17       4.08981      .   S
    N13    O18       2.92813  1_655   S
    Zr0    O18       1.85337      .   S
    N13    O19       2.09048      .   S
    Zr1    O19       2.74640      .   S
