# CIF file generated by openbabel 2.4.90, see http://openbabel.sf.net
data_I
_chemical_name_common ''
_cell_length_a 12.91
_cell_length_b 18.1
_cell_length_c 26.523
_cell_angle_alpha 90.001
_cell_angle_beta 89.994
_cell_angle_gamma 90.063
_space_group_name_H-M_alt 'P 1'
_space_group_name_Hall 'P 1'
loop_
    _symmetry_equiv_pos_as_xyz
    x,y,z
loop_
    _atom_site_label
    _atom_site_type_symbol
    _atom_site_fract_x
    _atom_site_fract_y
    _atom_site_fract_z
    _atom_site_occupancy
    Zn0     Zn   0.00003   0.49998   0.71420   1.000
    Zn1     Zn   0.50107   0.99993   0.71431   1.000
    Zn2     Zn   0.50109   0.49993   0.71431   1.000
    Zn3     Zn   0.24965   0.99991   0.78568   1.000
    Zn4     Zn   0.24965   0.49990   0.78567   1.000
    Zn5     Zn   0.75067   0.00011   0.78577   1.000
    Zn6     Zn   0.75067   0.50011   0.78578   1.000
    Zn7     Zn   0.00001   0.99999   0.28578   1.000
    Zn8     Zn   0.99997   0.50000   0.28578   1.000
    Zn9     Zn   0.50103   0.99995   0.28569   1.000
    Zn10    Zn   0.49882   0.50004   0.28569   1.000
    Zn11    Zn   0.24961   0.99992   0.21431   1.000
    Zn12    Zn   0.24933   0.49987   0.21423   1.000
    Zn13    Zn   0.75065   0.00012   0.21426   1.000
    Zn14    Zn   0.75034   0.50007   0.21433   1.000
    H15     H    0.38585   0.42008   0.63087   1.000
    H16     H    0.38581   0.92010   0.63081   1.000
    H17     H    0.88404   0.42106   0.63070   1.000
    H18     H    0.88404   0.92106   0.63070   1.000
    H19     H    0.37837   0.41738   0.53795   1.000
    H20     H    0.37843   0.91747   0.53789   1.000
    H21     H    0.87694   0.41840   0.53785   1.000
    H22     H    0.87693   0.91840   0.53785   1.000
    H23     H    0.13444   0.07900   0.86920   1.000
    H24     H    0.13443   0.57899   0.86923   1.000
    H25     H    0.63439   0.07897   0.86926   1.000
    H26     H    0.63440   0.57897   0.86927   1.000
    H27     H    0.12740   0.08171   0.96216   1.000
    H28     H    0.12738   0.58170   0.96214   1.000
    H29     H    0.62711   0.08153   0.96218   1.000
    H30     H    0.62711   0.58153   0.96219   1.000
    H31     H    0.36565   0.42096   0.86921   1.000
    Zn32    Zn   0.00003   0.99999   0.71420   1.000
    H33     H    0.36562   0.92095   0.86923   1.000
    H34     H    0.86576   0.42103   0.86932   1.000
    H35     H    0.86575   0.92103   0.86930   1.000
    H36     H    0.37283   0.41837   0.96213   1.000
    H37     H    0.37280   0.91835   0.96215   1.000
    H38     H    0.87268   0.41830   0.96223   1.000
    H39     H    0.87269   0.91830   0.96220   1.000
    H40     H    0.11598   0.07894   0.63076   1.000
    H41     H    0.11597   0.57894   0.63075   1.000
    H42     H    0.61515   0.07987   0.63068   1.000
    H43     H    0.61518   0.57984   0.63063   1.000
    H44     H    0.12307   0.08160   0.53784   1.000
    H45     H    0.12306   0.58159   0.53784   1.000
    H46     H    0.62189   0.08269   0.53770   1.000
    H47     H    0.62182   0.58260   0.53771   1.000
    H48     H    0.11597   0.07894   0.36924   1.000
    H49     H    0.11595   0.57893   0.36924   1.000
    H50     H    0.61493   0.07993   0.36920   1.000
    H51     H    0.61410   0.57988   0.36914   1.000
    H52     H    0.12306   0.08160   0.46210   1.000
    H53     H    0.12306   0.58159   0.46215   1.000
    H54     H    0.62179   0.08274   0.46219   1.000
    H55     H    0.62156   0.58257   0.46206   1.000
    H56     H    0.36555   0.42099   0.13073   1.000
    H57     H    0.36562   0.92099   0.13070   1.000
    H58     H    0.86558   0.42100   0.13077   1.000
    H59     H    0.86567   0.92101   0.13073   1.000
    H60     H    0.37285   0.41842   0.03781   1.000
    H61     H    0.37284   0.91840   0.03782   1.000
    H62     H    0.87261   0.41827   0.03786   1.000
    H63     H    0.87263   0.91827   0.03782   1.000
    H64     H    0.13434   0.07897   0.13072   1.000
    H65     H    0.13425   0.57896   0.13068   1.000
    H66     H    0.63442   0.07901   0.13078   1.000
    H67     H    0.63432   0.57900   0.13079   1.000
    H68     H    0.12734   0.08168   0.03780   1.000
    H69     H    0.12732   0.58168   0.03777   1.000
    H70     H    0.62716   0.08158   0.03786   1.000
    H71     H    0.62713   0.58158   0.03787   1.000
    H72     H    0.38475   0.42013   0.36937   1.000
    H73     H    0.38559   0.92016   0.36920   1.000
    H74     H    0.88402   0.42105   0.36925   1.000
    H75     H    0.88403   0.92105   0.36925   1.000
    H76     H    0.37809   0.41736   0.46229   1.000
    H77     H    0.37833   0.91751   0.46215   1.000
    H78     H    0.87693   0.41839   0.46217   1.000
    H79     H    0.87693   0.91840   0.46217   1.000
    C80     C    0.37718   0.24698   0.79482   1.000
    C81     C    0.37718   0.74698   0.79482   1.000
    C82     C    0.87601   0.24705   0.79487   1.000
    C83     C    0.87601   0.74705   0.79487   1.000
    C84     C    0.37984   0.17034   0.79486   1.000
    C85     C    0.37984   0.67033   0.79486   1.000
    C86     C    0.87889   0.17043   0.79490   1.000
    C87     C    0.87888   0.67042   0.79490   1.000
    C88     C    0.43573   0.45575   0.60843   1.000
    C89     C    0.43571   0.95579   0.60800   1.000
    C90     C    0.93459   0.45632   0.60838   1.000
    C91     C    0.93459   0.95632   0.60838   1.000
    C92     C    0.43311   0.45459   0.55609   1.000
    C93     C    0.43314   0.95466   0.55606   1.000
    C94     C    0.93220   0.45516   0.55604   1.000
    C95     C    0.93219   0.95516   0.55604   1.000
    C96     C    0.12715   0.25293   0.70520   1.000
    C97     C    0.12715   0.75293   0.70520   1.000
    C98     C    0.62658   0.25297   0.70520   1.000
    C99     C    0.62658   0.75297   0.70520   1.000
    C100    C    0.87885   0.67042   0.20511   1.000
    C101    C    0.43482   0.45580   0.39170   1.000
    C102    C    0.43554   0.95584   0.39163   1.000
    C103    C    0.93458   0.45631   0.39164   1.000
    C104    C    0.12842   0.32958   0.70514   1.000
    C105    C    0.12841   0.82958   0.70514   1.000
    C106    C    0.62933   0.32961   0.70516   1.000
    C107    C    0.62932   0.82960   0.70516   1.000
    C108    C    0.18485   0.04371   0.89163   1.000
    C109    C    0.18485   0.54370   0.89161   1.000
    C110    C    0.68479   0.04368   0.89165   1.000
    C111    C    0.68479   0.54367   0.89167   1.000
    C112    C    0.18247   0.04490   0.94397   1.000
    C113    C    0.18247   0.54490   0.94395   1.000
    C114    C    0.68229   0.04480   0.94399   1.000
    C115    C    0.68228   0.54479   0.94401   1.000
    C116    C    0.37360   0.24699   0.70519   1.000
    C117    C    0.37360   0.74698   0.70519   1.000
    C118    C    0.87291   0.24706   0.70521   1.000
    C119    C    0.87291   0.74705   0.70521   1.000
    C120    C    0.37097   0.17034   0.70515   1.000
    C121    C    0.37097   0.67033   0.70515   1.000
    C122    C    0.87162   0.17041   0.70514   1.000
    C123    C    0.87161   0.67041   0.70514   1.000
    C124    C    0.31527   0.45627   0.89160   1.000
    C125    C    0.31524   0.95626   0.89162   1.000
    C126    C    0.81529   0.45630   0.89100   1.000
    C127    C    0.81528   0.95630   0.89167   1.000
    C128    C    0.31771   0.45514   0.94394   1.000
    C129    C    0.31768   0.95513   0.94396   1.000
    C130    C    0.81759   0.45509   0.94403   1.000
    C131    C    0.81759   0.95509   0.94401   1.000
    C132    C    0.12447   0.37107   0.24999   1.000
    C133    C    0.12448   0.87108   0.24999   1.000
    C134    C    0.62463   0.37126   0.25000   1.000
    C135    C    0.62514   0.87112   0.25000   1.000
    C136    C    0.37497   0.37087   0.24998   1.000
    C137    C    0.12405   0.25294   0.79486   1.000
    C138    C    0.12405   0.75293   0.79486   1.000
    C139    C    0.62299   0.25299   0.79486   1.000
    C140    C    0.62299   0.75299   0.79486   1.000
    C141    C    0.12115   0.32956   0.79489   1.000
    C142    C    0.12115   0.82956   0.79489   1.000
    C143    C    0.62045   0.32963   0.79489   1.000
    C144    C    0.62044   0.82963   0.79489   1.000
    C145    C    0.06541   0.04368   0.60837   1.000
    C146    C    0.06541   0.54367   0.60837   1.000
    C147    C    0.56509   0.04421   0.60833   1.000
    C148    C    0.56510   0.54417   0.60830   1.000
    C149    C    0.06781   0.04485   0.55603   1.000
    C150    C    0.06780   0.54484   0.55603   1.000
    C151    C    0.56730   0.04546   0.55599   1.000
    C152    C    0.56725   0.54538   0.55596   1.000
    C153    C    0.12402   0.25293   0.20514   1.000
    C154    C    0.12400   0.75294   0.20510   1.000
    C155    C    0.62288   0.25304   0.20516   1.000
    C156    C    0.62289   0.75296   0.20518   1.000
    C157    C    0.12112   0.32956   0.20511   1.000
    C158    C    0.12112   0.82957   0.20511   1.000
    C159    C    0.62017   0.32968   0.20513   1.000
    C160    C    0.62038   0.82960   0.20513   1.000
    C161    C    0.06541   0.04368   0.39163   1.000
    C162    C    0.06540   0.54366   0.39163   1.000
    C163    C    0.56491   0.04426   0.39166   1.000
    C164    C    0.56420   0.54421   0.39158   1.000
    C165    C    0.06780   0.04485   0.44397   1.000
    C166    C    0.06779   0.54483   0.44397   1.000
    C167    C    0.56718   0.04550   0.44399   1.000
    C168    C    0.56682   0.54537   0.44392   1.000
    C169    C    0.37350   0.24697   0.29480   1.000
    C170    C    0.37348   0.74704   0.29481   1.000
    C171    C    0.87285   0.24706   0.29481   1.000
    C172    C    0.87287   0.74705   0.29480   1.000
    C173    C    0.37090   0.17032   0.29485   1.000
    C174    C    0.37069   0.67040   0.29485   1.000
    C175    C    0.87159   0.17042   0.29487   1.000
    C176    C    0.87158   0.67040   0.29487   1.000
    C177    C    0.31518   0.45629   0.10834   1.000
    C178    C    0.31523   0.95629   0.10836   1.000
    C179    C    0.81515   0.45629   0.10839   1.000
    C180    C    0.81523   0.95629   0.10830   1.000
    C181    C    0.31768   0.45517   0.05600   1.000
    C182    C    0.31770   0.95515   0.05601   1.000
    C183    C    0.81752   0.45507   0.05605   1.000
    C184    C    0.81756   0.95507   0.05602   1.000
    C185    C    0.12712   0.25293   0.29480   1.000
    C186    C    0.12710   0.75293   0.29479   1.000
    C187    C    0.62646   0.25303   0.29480   1.000
    C188    C    0.62648   0.75295   0.29482   1.000
    C189    C    0.12839   0.32958   0.29487   1.000
    C190    C    0.12839   0.82958   0.29486   1.000
    C191    C    0.62904   0.32967   0.29485   1.000
    C192    C    0.62926   0.82959   0.29486   1.000
    C193    C    0.18479   0.04369   0.10835   1.000
    C194    C    0.18471   0.54368   0.10831   1.000
    C195    C    0.68479   0.04371   0.10838   1.000
    C196    C    0.68471   0.54370   0.10840   1.000
    C197    C    0.18243   0.04489   0.05601   1.000
    C198    C    0.18240   0.54489   0.05597   1.000
    C199    C    0.68231   0.04482   0.05604   1.000
    C200    C    0.68226   0.54482   0.05606   1.000
    C201    C    0.37708   0.24695   0.20510   1.000
    C202    C    0.37707   0.74702   0.20517   1.000
    C203    C    0.87595   0.24706   0.20515   1.000
    C204    C    0.87596   0.74705   0.20514   1.000
    C205    C    0.37977   0.17032   0.20513   1.000
    C206    C    0.37957   0.67038   0.20513   1.000
    C207    C    0.87886   0.17043   0.20510   1.000
    F208    F    0.38658   0.63427   0.16049   1.000
    F209    F    0.88447   0.13429   0.16045   1.000
    F210    F    0.88447   0.63428   0.16044   1.000
    C211    C    0.93458   0.95632   0.39164   1.000
    C212    C    0.43267   0.45458   0.44400   1.000
    C213    C    0.43303   0.95469   0.44397   1.000
    C214    C    0.93219   0.45515   0.44398   1.000
    C215    C    0.93219   0.95516   0.44398   1.000
    C216    C    0.00000   0.00001   0.52801   1.000
    C217    C    1.00000   0.50000   0.52801   1.000
    C218    C    0.50015   0.00008   0.52801   1.000
    C219    C    0.50009   0.49997   0.52801   1.000
    C220    C    0.25010   0.00003   0.97190   1.000
    C221    C    0.25011   0.50004   0.97196   1.000
    C222    C    0.74990   0.99993   0.97200   1.000
    C223    C    0.74989   0.49992   0.97204   1.000
    C224    C    0.00000   0.00001   0.47199   1.000
    C225    C    1.00000   0.49999   0.47199   1.000
    C226    C    0.50009   0.00010   0.47000   1.000
    C227    C    0.49983   0.49999   0.47000   1.000
    C228    C    0.25009   0.00003   0.02799   1.000
    C229    C    0.25007   0.50003   0.02797   1.000
    C230    C    0.74992   0.99994   0.02802   1.000
    C231    C    0.74989   0.49994   0.02804   1.000
    C232    C    0.37528   0.37095   0.75000   1.000
    C233    C    0.37527   0.87095   0.75000   1.000
    C234    C    0.87419   0.37096   0.75002   1.000
    C235    C    0.87420   0.87095   0.75002   1.000
    C236    C    0.37529   0.28838   0.75001   1.000
    C237    C    0.37529   0.78837   0.75001   1.000
    C238    C    0.87436   0.28842   0.75004   1.000
    C239    C    0.87435   0.78842   0.75004   1.000
    C240    C    0.37537   0.12876   0.75000   1.000
    C241    C    0.37537   0.62875   0.75000   1.000
    C242    C    0.87553   0.12892   0.75002   1.000
    C243    C    0.87552   0.62891   0.75002   1.000
    C244    C    0.12597   0.12903   0.75000   1.000
    C245    C    0.12596   0.62903   0.74999   1.000
    C246    C    0.62503   0.12908   0.75003   1.000
    C247    C    0.62502   0.62908   0.75003   1.000
    C248    C    0.12574   0.21157   0.75003   1.000
    C249    C    0.12573   0.71157   0.75003   1.000
    C250    C    0.62495   0.21162   0.75004   1.000
    C251    C    0.62495   0.71162   0.75004   1.000
    C252    C    0.12451   0.37108   0.75001   1.000
    C253    C    0.12451   0.87108   0.75001   1.000
    C254    C    0.62521   0.37114   0.75002   1.000
    C255    C    0.62520   0.87114   0.75002   1.000
    C256    C    0.12593   0.12903   0.25000   1.000
    C257    C    0.12580   0.62903   0.24998   1.000
    C258    C    0.62497   0.12912   0.24998   1.000
    C259    C    0.62472   0.62900   0.25000   1.000
    C260    C    0.12569   0.21157   0.24997   1.000
    C261    C    0.12565   0.71157   0.24996   1.000
    C262    C    0.62485   0.21166   0.24997   1.000
    C263    C    0.62476   0.71158   0.20000   1.000
    C264    C    0.37523   0.87099   0.25000   1.000
    C265    C    0.87402   0.37096   0.25000   1.000
    C266    C    0.87414   0.87095   0.25000   1.000
    C267    C    0.37509   0.28834   0.24997   1.000
    C268    C    0.37518   0.78841   0.24999   1.000
    C269    C    0.87428   0.28842   0.24998   1.000
    C270    C    0.87432   0.78841   0.24997   1.000
    C271    C    0.37527   0.12874   0.24999   1.000
    C272    C    0.37479   0.62887   0.24999   1.000
    C273    C    0.87550   0.12892   0.24999   1.000
    C274    C    0.87548   0.62890   0.24999   1.000
    N275    N    0.00001   0.00000   0.63459   1.000
    N276    N    0.00000   0.50000   0.63459   1.000
    N277    N    0.50051   0.99997   0.63450   1.000
    N278    N    0.50053   0.49996   0.63450   1.000
    N279    N    0.24999   0.99995   0.86541   1.000
    N280    N    0.24999   0.49994   0.86540   1.000
    N281    N    0.75013   0.00004   0.86545   1.000
    N282    N    0.75014   0.50004   0.86547   1.000
    N283    N    1.00000   0.00001   0.36542   1.000
    N284    N    0.99999   0.49999   0.36542   1.000
    N285    N    0.50033   0.00000   0.36543   1.000
    N286    N    0.49940   0.50001   0.36543   1.000
    N287    N    0.24995   0.99996   0.13450   1.000
    N288    N    0.24987   0.49995   0.13450   1.000
    N289    N    0.75009   0.00004   0.13458   1.000
    N290    N    0.74998   0.50002   0.13461   1.000
    O291    O    0.41792   0.40333   0.71280   1.000
    O292    O    0.41790   0.90332   0.71279   1.000
    O293    O    0.91630   0.40342   0.71272   1.000
    O294    O    0.91630   0.90342   0.71272   1.000
    O295    O    0.16828   0.09675   0.78730   1.000
    O296    O    0.16828   0.59674   0.78730   1.000
    O297    O    0.66737   0.09665   0.78725   1.000
    O298    O    0.66736   0.59664   0.78725   1.000
    O299    O    0.33260   0.40331   0.78718   1.000
    O300    O    0.33260   0.90331   0.78718   1.000
    O301    O    0.83204   0.40324   0.78738   1.000
    O302    O    0.83202   0.90324   0.78737   1.000
    O303    O    0.08369   0.09657   0.71274   1.000
    O304    O    0.08368   0.59657   0.71274   1.000
    O305    O    0.58266   0.09677   0.71272   1.000
    O306    O    0.58267   0.59677   0.71270   1.000
    O307    O    0.08368   0.09657   0.28726   1.000
    O308    O    0.08367   0.59657   0.28728   1.000
    O309    O    0.58259   0.09679   0.28729   1.000
    O310    O    0.58207   0.59664   0.28721   1.000
    O311    O    0.33262   0.40332   0.21276   1.000
    O312    O    0.33260   0.90334   0.21281   1.000
    O313    O    0.83172   0.40324   0.21270   1.000
    O314    O    0.83200   0.90324   0.21260   1.000
    O315    O    0.16824   0.09675   0.21268   1.000
    O316    O    0.16796   0.59674   0.21263   1.000
    O317    O    0.66737   0.09667   0.21270   1.000
    O318    O    0.66738   0.59665   0.21282   1.000
    O319    O    0.41732   0.40320   0.28729   1.000
    O320    O    0.41785   0.90334   0.28721   1.000
    O321    O    0.91630   0.40342   0.28727   1.000
    O322    O    0.91630   0.90341   0.28728   1.000
    O323    O    0.37530   0.05490   0.74999   1.000
    O324    O    0.37531   0.55490   0.74999   1.000
    O325    O    0.87563   0.05504   0.75004   1.000
    O326    O    0.87562   0.55503   0.75004   1.000
    O327    O    0.12438   0.44496   0.75004   1.000
    O328    O    0.12437   0.94496   0.75004   1.000
    O329    O    0.62565   0.44501   0.75000   1.000
    O330    O    0.12435   0.44495   0.24996   1.000
    O331    O    0.12437   0.94496   0.24996   1.000
    O332    O    0.62467   0.44511   0.25001   1.000
    O333    O    0.62559   0.94499   0.25002   1.000
    O334    O    0.37519   0.05489   0.25001   1.000
    O335    O    0.37433   0.55500   0.25001   1.000
    O336    O    0.87563   0.05504   0.24996   1.000
    O337    O    0.87560   0.55502   0.24996   1.000
    F338    F    0.38223   0.28121   0.84008   1.000
    F339    F    0.38223   0.78121   0.84008   1.000
    F340    F    0.88007   0.28121   0.84016   1.000
    F341    F    0.88007   0.78121   0.84016   1.000
    F342    F    0.38662   0.13426   0.83950   1.000
    F343    F    0.38661   0.63426   0.83950   1.000
    F344    F    0.88447   0.13428   0.83956   1.000
    F345    F    0.88446   0.63427   0.83956   1.000
    F346    F    0.13321   0.21876   0.65996   1.000
    F347    F    0.13321   0.71875   0.65996   1.000
    F348    F    0.63117   0.21877   0.65993   1.000
    F349    F    0.63116   0.71877   0.65993   1.000
    F350    F    0.13341   0.36572   0.66045   1.000
    F351    F    0.13341   0.86572   0.66045   1.000
    F352    F    0.63556   0.36571   0.66049   1.000
    F353    F    0.63556   0.86571   0.66049   1.000
    F354    F    0.36882   0.28121   0.65993   1.000
    F355    F    0.36881   0.78120   0.65990   1.000
    F356    F    0.86677   0.28123   0.65998   1.000
    F357    F    0.86677   0.78123   0.65998   1.000
    F358    F    0.36446   0.13426   0.66047   1.000
    F359    F    0.36445   0.63426   0.66047   1.000
    F360    F    0.86657   0.13427   0.66046   1.000
    F361    F    0.86656   0.63427   0.66046   1.000
    F362    F    0.11991   0.21876   0.84015   1.000
    F363    F    0.11991   0.71876   0.84015   1.000
    F364    F    0.61775   0.21877   0.84010   1.000
    F365    F    0.61774   0.71876   0.84010   1.000
    F366    F    0.11551   0.36570   0.83956   1.000
    F367    F    0.11551   0.86570   0.83956   1.000
    F368    F    0.61339   0.36573   0.83953   1.000
    F369    F    0.61339   0.86572   0.83953   1.000
    F370    F    0.11992   0.21877   0.15985   1.000
    F371    F    0.11991   0.71877   0.15984   1.000
    F372    F    0.61776   0.21879   0.15991   1.000
    F373    F    0.61774   0.71875   0.15992   1.000
    F374    F    0.11552   0.36571   0.16045   1.000
    F375    F    0.11552   0.86571   0.16044   1.000
    F376    F    0.61337   0.36574   0.16047   1.000
    F377    F    0.61339   0.86571   0.16049   1.000
    F378    F    0.36881   0.28119   0.34006   1.000
    F379    F    0.36882   0.78123   0.34009   1.000
    F380    F    0.86677   0.28123   0.34004   1.000
    F381    F    0.86677   0.78123   0.34004   1.000
    F382    F    0.36445   0.13426   0.33953   1.000
    F383    F    0.36442   0.63428   0.33952   1.000
    F384    F    0.86657   0.13427   0.33955   1.000
    F385    F    0.86657   0.63427   0.33955   1.000
    F386    F    0.13321   0.21876   0.34003   1.000
    F387    F    0.13321   0.71876   0.34003   1.000
    F388    F    0.63118   0.21880   0.34006   1.000
    F389    F    0.63115   0.71876   0.34009   1.000
    F390    F    0.13341   0.36572   0.33955   1.000
    F391    F    0.13341   0.86572   0.33955   1.000
    F392    F    0.63552   0.36573   0.33953   1.000
    F393    F    0.63556   0.86571   0.33952   1.000
    F394    F    0.38223   0.28120   0.15991   1.000
    F395    F    0.38224   0.78123   0.15992   1.000
    F396    F    0.88007   0.28123   0.15986   1.000
    F397    F    0.88007   0.78121   0.15985   1.000
    F398    F    0.38662   0.13425   0.16047   1.000
loop_
    _geom_bond_atom_site_label_1
    _geom_bond_atom_site_label_2
    _geom_bond_distance
    _geom_bond_site_symmetry_2
    _ccdc_geom_bond_type
    C229   C198      1.40549      .   S
    C229   C181      1.40559      .   S
    C229   C221      1.48555  1_554   S
    C228   C182      1.40556  1_545   S
    C228   C197      1.40562      .   S
    C228   C220      1.48768  1_554   S
    C230   C184      1.40552      .   S
    C230   C199      1.40547  1_565   S
    C230   C222      1.48582  1_554   S
    C231   C183      1.40551      .   S
    C231   C200      1.40559      .   S
    C231   C223      1.48529  1_554   S
    H69    C198      1.08778      .   S
    H68    C197      1.08799      .   S
    H60    C181      1.08783      .   S
    H63    C184      1.08780      .   S
    H61    C182      1.08775      .   S
    H62    C183      1.08776      .   S
    H70    C199      1.08770      .   S
    H71    C200      1.08773      .   S
    C198   C194      1.38871      .   S
    C181   C177      1.38873      .   S
    C182   C178      1.38899      .   S
    C197   C193      1.38872      .   S
    C184   C180      1.38712      .   S
    C199   C195      1.38873      .   S
    C183   C179      1.38872      .   S
    C200   C196      1.38873      .   S
    C180   H59       1.08936      .   S
    C180   N289      1.34972  1_565   S
    C194   H65       1.08853      .   S
    C194   N288      1.34846      .   S
    C177   H56       1.08852      .   S
    C177   N288      1.34841      .   S
    C193   H64       1.08846      .   S
    C193   N287      1.34798  1_545   S
    C178   H57       1.08790      .   S
    C178   N287      1.34797      .   S
    C195   H66       1.08863      .   S
    C195   N289      1.34898      .   S
    C179   H58       1.08857      .   S
    C179   N290      1.34894      .   S
    C196   H67       1.08859      .   S
    C196   N290      1.34895      .   S
    N288   Zn12      2.11469      .   S
    N287   Zn11      2.11680      .   S
    N289   Zn13      2.11337      .   S
    N290   Zn14      2.11442      .   S
    F371   C154      1.35134      .   S
    F370   C153      1.35205      .   S
    F397   C204      1.35209      .   S
    F396   C203      1.35210      .   S
    F372   C155      1.35243      .   S
    F394   C201      1.35103      .   S
    F395   C202      1.35207      .   S
    F373   C263      1.07480      .   S
    F210   C100      1.35531      .   S
    F375   C158      1.35536      .   S
    F374   C157      1.35520      .   S
    F209   C207      1.35492      .   S
    F376   C159      1.35538      .   S
    F398   C205      1.35540      .   S
    F377   C160      1.35545      .   S
    F208   C206      1.35547      .   S
    C263   C156      0.76199      .   S
    C201   C205      1.38755      .   S
    C201   C267      1.40646      .   S
    C154   C158      1.38752      .   S
    C154   C261      1.40601      .   S
    C207   C203      1.38752      .   S
    C207   C273      1.40854      .   S
    C158   C133      1.40834      .   S
    C157   C153      1.38751      .   S
    C157   C132      1.40830      .   S
    C100   C204      1.38753      .   S
    C100   C274      1.40837      .   S
    C159   C155      1.38755      .   S
    C159   C134      1.40923      .   S
    C206   C202      1.38765      .   S
    C206   C272      1.40855      .   S
    C205   C271      1.40899      .   S
    C160   C156      1.38765      .   S
    C160   C135      1.40879      .   S
    C204   C270      1.40531      .   S
    C153   C260      1.40529      .   S
    C203   C269      1.40525      .   S
    C155   C262      1.40513      .   S
    C202   C268      1.40530      .   S
    O314   Zn13      2.04551  1_565   S
    O314   C266      1.27370      .   S
    O316   Zn12      2.04542      .   S
    O316   C257      1.27264      .   S
    O315   Zn11      2.04490  1_545   S
    O315   C256      1.27277      .   S
    O313   Zn14      2.04487      .   S
    O313   C265      1.27246      .   S
    O317   Zn13      2.05323      .   S
    O317   C258      1.27392      .   S
    O311   Zn12      2.05320      .   S
    O311   C136      1.27255      .   S
    O312   Zn11      2.05168      .   S
    O312   C264      1.27262      .   S
    O318   Zn14      2.05148      .   S
    O318   C259      1.27248      .   S
    Zn11   O334      2.12410  1_565   S
    Zn14   O332      2.12460      .   S
    O331   C133      1.33716      .   S
    O331   Zn7       2.11555      .   S
    O337   C274      1.33714      .   S
    O337   Zn8       2.11571      .   S
    C261   C257      1.49392      .   S
    C261   C186      1.40520      .   S
    O330   C132      1.33721      .   S
    O330   Zn8       2.11590  1_455   S
    O336   C273      1.33723      .   S
    O336   Zn7       2.11607  1_645   S
    C260   C256      1.49398      .   S
    C260   C185      1.40517      .   S
    C262   C258      1.49385      .   S
    C262   C187      1.40532      .   S
    C267   C136      1.49385      .   S
    C267   C169      1.40532      .   S
    C270   C266      1.49391      .   S
    C270   C172      1.40522      .   S
    C258   O309      1.27293      .   S
    C269   C265      1.49398      .   S
    C269   C171      1.40519      .   S
    C257   O308      1.27240      .   S
    C136   O319      1.27276      .   S
    C274   C176      1.40852      .   S
    C273   C175      1.40841      .   S
    C272   O335      1.33707      .   S
    C272   C174      1.40842      .   S
    C271   O334      1.33670      .   S
    C271   C173      1.40904      .   S
    C132   C189      1.40845      .   S
    C268   C264      1.49464      .   S
    C268   C170      1.40513      .   S
    C133   C190      1.40832      .   S
    C256   O307      1.27221      .   S
    C259   O310      1.27257      .   S
    C134   O332      1.33668      .   S
    C134   C191      1.40887      .   S
    C135   O333      1.33707      .   S
    C135   C192      1.40847      .   S
    C264   O320      1.27242      .   S
    C265   O321      1.27262      .   S
    C266   O322      1.27222      .   S
    O335   Zn10      2.11471      .   S
    O333   Zn9       2.11513      .   S
    Zn10   O310      2.05166      .   S
    Zn10   O319      2.04390      .   S
    Zn10   N286      2.11496      .   S
    Zn9    O320      2.05138      .   S
    Zn9    O309      2.04421  1_565   S
    Zn9    N285      2.11496  1_565   S
    Zn8    O321      2.05434      .   S
    Zn8    O308      2.05426  1_655   S
    Zn8    N284      2.11229      .   S
    Zn7    O307      2.05424  1_565   S
    Zn7    O322      2.05449  1_455   S
    Zn7    N283      2.11229  1_465   S
    C186   C190      1.38738      .   S
    C186   F387      1.35232      .   S
    C172   C176      1.38739      .   S
    C172   F381      1.35227      .   S
    C185   C189      1.38739      .   S
    C185   F386      1.35205      .   S
    C169   C173      1.38761      .   S
    C169   F378      1.35224      .   S
    C187   C191      1.38762      .   S
    C187   F388      1.35232      .   S
    C171   C175      1.38739      .   S
    C171   F380      1.35199      .   S
    C170   C174      1.38759      .   S
    C170   F379      1.35237      .   S
    C188   C192      1.38759      .   S
    C188   F389      1.35220      .   S
    C174   F383      1.35557      .   S
    C173   F382      1.35542      .   S
    C191   F392      1.35543      .   S
    C190   F391      1.35534      .   S
    C192   F393      1.35534      .   S
    C176   F385      1.35511      .   S
    C175   F384      1.35516      .   S
    C189   F390      1.35515      .   S
    N283   C161      1.34902  1_655   S
    N283   C211      1.34924  1_545   S
    N284   C162      1.34904  1_655   S
    N284   C103      1.34907      .   S
    N285   C102      1.34910  1_545   S
    N285   C163      1.34888      .   S
    N286   C164      1.34886      .   S
    N286   C101      1.34885      .   S
    H51    C164      1.08857      .   S
    H73    C102      1.08897      .   S
    H50    C163      1.08980      .   S
    H48    C161      1.08862      .   S
    H49    C162      1.08860      .   S
    H75    C211      1.08868      .   S
    H74    C103      1.08871      .   S
    H72    C101      1.08845      .   S
    C164   C168      1.38879      .   S
    C161   C165      1.38872      .   S
    C102   C213      1.38874      .   S
    C162   C166      1.38872      .   S
    C103   C214      1.38871      .   S
    C211   C215      1.38871      .   S
    C163   C167      1.38844      .   S
    C101   C212      1.38760      .   S
    C168   H55       1.08777      .   S
    C168   C227      1.37817      .   S
    C166   H53       1.08771      .   S
    C166   C225      1.40550  1_455   S
    C165   H52       1.08711      .   S
    C165   C224      1.40550      .   S
    C213   H77       1.08774      .   S
    C213   C226      1.37843  1_565   S
    C215   H79       1.08773      .   S
    C215   C224      1.40567  1_665   S
    C214   H78       1.08773      .   S
    C214   C225      1.40552      .   S
    C167   H54       1.08774      .   S
    C167   C226      1.37832      .   S
    C212   H76       1.08830      .   S
    C212   C227      1.37895      .   S
    C227   C219      1.53860      .   S
    C226   C218      1.53860      .   S
    C224   C216      1.48582      .   S
    C225   C217      1.48582      .   S
    C219   C152      1.40559      .   S
    C219   C92       1.40549      .   S
    C218   C151      1.40551      .   S
    C218   C93       1.40571  1_545   S
    C217   C150      1.40563  1_655   S
    C217   C94       1.40567      .   S
    C216   C149      1.40561      .   S
    C216   C95       1.40584  1_445   S
    H46    C151      1.08860      .   S
    H47    C152      1.08780      .   S
    H44    C149      1.08775      .   S
    H45    C150      1.08774      .   S
    H22    C95       1.08781      .   S
    H21    C94       1.08782      .   S
    H20    C93       1.08783      .   S
    H19    C92       1.08779      .   S
    C152   C148      1.38866      .   S
    C151   C147      1.38869      .   S
    C149   C145      1.38871      .   S
    C150   C146      1.38871      .   S
    C95    C91       1.38872      .   S
    C94    C90       1.38872      .   S
    C93    C89       1.37816      .   S
    C92    C88       1.38879      .   S
    C89    H16       1.09425      .   S
    C89    N277      1.35347      .   S
    C148   H43       1.08850      .   S
    C148   N278      1.34783      .   S
    C147   H42       1.08845      .   S
    C147   N277      1.34782  1_545   S
    C146   H41       1.08856      .   S
    C146   N276      1.34906      .   S
    C145   H40       1.08869      .   S
    C145   N275      1.34907      .   S
    C91    H18       1.08760      .   S
    C91    N275      1.34919  1_665   S
    C90    H17       1.08760      .   S
    C90    N276      1.34905  1_655   S
    C88    H15       1.08852      .   S
    C88    N278      1.34783      .   S
    N277   Zn1       2.11681      .   S
    N278   Zn2       2.11681      .   S
    N275   Zn32      2.11150  1_545   S
    N276   Zn0       2.11150      .   S
    F355   C117      1.35297      .   S
    F348   C98       1.35217      .   S
    F349   C99       1.35218      .   S
    F354   C116      1.35227      .   S
    F346   C96       1.35225      .   S
    F347   C97       1.35225      .   S
    F357   C119      1.35208      .   S
    F356   C118      1.35208      .   S
    F351   C105      1.35533      .   S
    F350   C104      1.35533      .   S
    F361   C123      1.35515      .   S
    F360   C122      1.35515      .   S
    F359   C121      1.35560      .   S
    F358   C120      1.35560      .   S
    F353   C107      1.35540      .   S
    F352   C106      1.35540      .   S
    C104   C96       1.38739      .   S
    C104   C252      1.40828      .   S
    C105   C97       1.38739      .   S
    C105   C253      1.40827      .   S
    C122   C118      1.38739      .   S
    C122   C242      1.40846      .   S
    C123   C119      1.38739      .   S
    C123   C243      1.40846      .   S
    C120   C116      1.38769      .   S
    C120   C240      1.40886      .   S
    C121   C117      1.38770      .   S
    C121   C241      1.40886      .   S
    C107   C99       1.38753      .   S
    C107   C255      1.40843      .   S
    C106   C98       1.38751      .   S
    C106   C254      1.40844      .   S
    C116   C236      1.40530      .   S
    C117   C237      1.40529      .   S
    C96    C248      1.40521      .   S
    C98    C250      1.40538      .   S
    C97    C249      1.40521      .   S
    C99    C251      1.40538      .   S
    C118   C238      1.40518      .   S
    C119   C239      1.40518      .   S
    O306   Zn2       2.04425      .   S
    O306   C247      1.27307      .   S
    O293   Zn0       2.05432  1_655   S
    O293   C234      1.27231      .   S
    O294   Zn32      2.05452  1_655   S
    O294   C235      1.27225      .   S
    O305   Zn1       2.04436  1_545   S
    O305   C246      1.27275      .   S
    O303   Zn32      2.05425  1_545   S
    O303   C244      1.27243      .   S
    O304   Zn0       2.05425      .   S
    O304   C245      1.27223      .   S
    O292   Zn1       2.05137      .   S
    O292   C233      1.27260      .   S
    O291   Zn2       2.05132      .   S
    O291   C232      1.27246      .   S
    Zn0    O327      2.11578      .   S
    Zn0    O326      2.11634  1_455   S
    Zn32   O328      2.11576      .   S
    Zn32   O325      2.11635  1_465   S
    Zn2    O329      2.11524      .   S
    O323   C240      1.33676      .   S
    O323   Zn3       2.12471  1_545   S
    O324   C241      1.33676      .   S
    O324   Zn4       2.12469      .   S
    C245   C249      1.49398      .   S
    C245   O296      1.27277      .   S
    C232   C236      1.49459      .   S
    C232   O299      1.27267      .   S
    C233   C237      1.49461      .   S
    C233   O300      1.27262      .   S
    C240   C84       1.40904      .   S
    C241   C85       1.40904      .   S
    O329   C254      1.33700      .   S
    C244   C248      1.49398      .   S
    C244   O295      1.27253      .   S
    C253   O328      1.33718      .   S
    C253   C142      1.40838      .   S
    C252   O327      1.33718      .   S
    C252   C141      1.40837      .   S
    C237   C81       1.40521      .   S
    C236   C80       1.40521      .   S
    C243   O326      1.33719      .   S
    C243   C87       1.40829      .   S
    C242   O325      1.33719      .   S
    C242   C86       1.40828      .   S
    C235   C239      1.49392      .   S
    C235   O302      1.27273      .   S
    C255   C144      1.40873      .   S
    C254   C143      1.40874      .   S
    C234   C238      1.49392      .   S
    C234   O301      1.27282      .   S
    C246   C250      1.49390      .   S
    C246   O297      1.27234      .   S
    C248   C137      1.40530      .   S
    C249   C138      1.40529      .   S
    C247   C251      1.49390      .   S
    C247   O298      1.27235      .   S
    C238   C82       1.40531      .   S
    C251   C140      1.40522      .   S
    C250   C139      1.40521      .   S
    C239   C83       1.40529      .   S
    Zn4    O299      2.05162      .   S
    Zn4    O296      2.04495      .   S
    Zn4    N280      2.11468      .   S
    Zn3    O300      2.05170      .   S
    Zn3    O295      2.04494  1_565   S
    Zn3    N279      2.11468      .   S
    Zn5    O297      2.05305      .   S
    Zn5    O302      2.04541  1_545   S
    Zn5    N281      2.11336      .   S
    Zn6    O298      2.05306      .   S
    Zn6    O301      2.04536      .   S
    Zn6    N282      2.11363      .   S
    C80    C84       1.38768      .   S
    C80    F338      1.35245      .   S
    C81    C85       1.38769      .   S
    C81    F339      1.35245      .   S
    C139   C143      1.38752      .   S
    C139   F364      1.35206      .   S
    C138   C142      1.38751      .   S
    C138   F363      1.35216      .   S
    C140   C144      1.38754      .   S
    C140   F365      1.35205      .   S
    C137   C141      1.38753      .   S
    C137   F362      1.35215      .   S
    C85    F343      1.35497      .   S
    C84    F342      1.35498      .   S
    C83    C87       1.38752      .   S
    C83    F341      1.35199      .   S
    C82    C86       1.38750      .   S
    C82    F340      1.35199      .   S
    C142   F367      1.35534      .   S
    C143   F368      1.35540      .   S
    C144   F369      1.35539      .   S
    C141   F366      1.35534      .   S
    C87    F345      1.35518      .   S
    C86    F344      1.35518      .   S
    N280   C124      1.34881      .   S
    N280   C109      1.34882      .   S
    N279   C125      1.34896      .   S
    N279   C108      1.34890  1_565   S
    N281   C110      1.34892      .   S
    N281   C127      1.34895  1_545   S
    N282   C126      1.33954      .   S
    N282   C111      1.34895      .   S
    H23    C108      1.08933      .   S
    H31    C124      1.08858      .   S
    H24    C109      1.08856      .   S
    H33    C125      1.08857      .   S
    H25    C110      1.08853      .   S
    H26    C111      1.08867      .   S
    H35    C127      1.08848      .   S
    H34    C126      1.07867      .   S
    C126   C130      1.40700      .   S
    C124   C128      1.38873      .   S
    C109   C113      1.38872      .   S
    C125   C129      1.38873      .   S
    C108   C112      1.38872      .   S
    C110   C114      1.38873      .   S
    C111   C115      1.38873      .   S
    C127   C131      1.38871      .   S
    C128   H36       1.08775      .   S
    C128   C221      1.40557      .   S
    C113   H28       1.08777      .   S
    C113   C221      1.40550      .   S
    C129   H37       1.08777      .   S
    C129   C220      1.40442  1_565   S
    C112   H27       1.08776      .   S
    C112   C220      1.40440      .   S
    C114   H29       1.08779      .   S
    C114   C222      1.40537  1_545   S
    C131   H39       1.08768      .   S
    C131   C222      1.40532      .   S
    C115   H30       1.08769      .   S
    C115   C223      1.40561      .   S
    C130   H38       1.08778      .   S
    C130   C223      1.40562      .   S
    O323   Zn1       2.12716  1_545   S
    O324   Zn2       2.12723      .   S
    O325   Zn5       2.11781      .   S
    O326   Zn6       2.11787      .   S
    O327   Zn4       2.12003      .   S
    O328   Zn3       2.12022      .   S
    O329   Zn6       2.12057      .   S
    O330   Zn12      2.11788      .   S
    O331   Zn11      2.11989      .   S
    O332   Zn10      2.12769      .   S
    O333   Zn13      2.12080  1_565   S
    O334   Zn9       2.12776  1_545   S
    O335   Zn12      2.12063      .   S
    O336   Zn13      2.11776      .   S
    O337   Zn14      2.11991      .   S
