# CIF file generated by openbabel 2.4.90, see http://openbabel.sf.net
data_I
_chemical_name_common ''
_cell_length_a 12.91
_cell_length_b 18.1
_cell_length_c 26.523
_cell_angle_alpha 90.001
_cell_angle_beta 89.994
_cell_angle_gamma 90.063
_space_group_name_H-M_alt 'P 1'
_space_group_name_Hall 'P 1'
loop_
    _symmetry_equiv_pos_as_xyz
    x,y,z
loop_
    _atom_site_label
    _atom_site_type_symbol
    _atom_site_fract_x
    _atom_site_fract_y
    _atom_site_fract_z
    _atom_site_occupancy
    Zr0     Zr   0.00003   0.99999   0.71420   1.000
    Zr1     Zr   0.00003   0.49998   0.71420   1.000
    Zr2     Zr   0.50107   0.99993   0.71431   1.000
    Zr3     Zr   0.50109   0.49993   0.71431   1.000
    Zr4     Zr   0.24965   0.99991   0.78568   1.000
    Zr5     Zr   0.24965   0.49990   0.78567   1.000
    Zr6     Zr   0.75067   0.00011   0.78577   1.000
    Zr7     Zr   0.75067   0.50011   0.78578   1.000
    Zr8     Zr   0.00001   0.99999   0.28578   1.000
    Zr9     Zr   0.99997   0.50000   0.28578   1.000
    Zr10    Zr   0.50103   0.99995   0.28569   1.000
    Zr11    Zr   0.49882   0.50004   0.28569   1.000
    Zr12    Zr   0.24961   0.99992   0.21431   1.000
    Zr13    Zr   0.24933   0.49987   0.21423   1.000
    Zr14    Zr   0.75065   0.00012   0.21426   1.000
    Zr15    Zr   0.75034   0.50007   0.21433   1.000
    N16     N    0.37539   0.73680   0.75000   1.000
    O17     O    0.33326   0.84420   0.76821   1.000
    O18     O    0.41744   0.84421   0.73177   1.000
    O19     O    0.34394   0.63210   0.75891   1.000
    O20     O    0.40680   0.63211   0.74107   1.000
    N21     N    0.74999   0.99997   0.00001   1.000
    O22     O    0.75019   0.00002   0.91281   1.000
    O23     O    0.75018   0.00003   0.08722   1.000
    N24     N    0.25005   0.00000   0.99997   1.000
    O25     O    0.24993   0.99996   0.91276   1.000
    O26     O    0.24991   0.99997   0.08719   1.000
    N27     N    0.62468   0.26322   0.24999   1.000
    O28     O    0.66684   0.15581   0.23173   1.000
    O29     O    0.58324   0.15580   0.26824   1.000
    O30     O    0.65609   0.36791   0.24108   1.000
    O31     O    0.59321   0.36790   0.25892   1.000
    N32     N    0.50025   0.00005   0.49987   1.000
    O33     O    0.50052   0.00000   0.58714   1.000
    O34     O    0.50046   0.00001   0.41271   1.000
    N35     N    0.87466   0.73685   0.75003   1.000
    O36     O    0.91641   0.84428   0.73175   1.000
    O37     O    0.90624   0.63218   0.74108   1.000
    O38     O    0.84390   0.63221   0.75897   1.000
    O39     O    0.83300   0.84426   0.76830   1.000
    N40     N    0.12533   0.76314   0.24997   1.000
    O41     O    0.08358   0.65571   0.26825   1.000
    O42     O    0.16698   0.65572   0.23170   1.000
    O43     O    0.09376   0.86781   0.25892   1.000
    O44     O    0.15616   0.86779   0.24105   1.000
    N45     N    0.25003   0.50000   0.99996   1.000
    O46     O    0.24981   0.49996   0.08716   1.000
    O47     O    0.24993   0.49996   0.91275   1.000
    N48     N    0.87467   0.23685   0.75004   1.000
    O49     O    0.91642   0.34428   0.73175   1.000
    O50     O    0.83301   0.34426   0.76831   1.000
    O51     O    0.90625   0.13218   0.74108   1.000
    O52     O    0.84391   0.13221   0.75897   1.000
    N53     N    0.49996   0.49998   0.49990   1.000
    O54     O    0.50039   0.49996   0.58715   1.000
    O55     O    0.49954   0.50000   0.41273   1.000
    N56     N    0.00000   0.00000   0.50000   1.000
    O57     O    0.00001   1.00000   0.58720   1.000
    O58     O    0.00000   0.00000   0.41280   1.000
    N59     N    0.37527   0.23677   0.24999   1.000
    O60     O    0.41667   0.34420   0.26824   1.000
    O61     O    0.33312   0.34418   0.23174   1.000
    O62     O    0.34384   0.13209   0.24107   1.000
    O63     O    0.40669   0.13210   0.25892   1.000
    N64     N    0.74995   0.49997   0.00000   1.000
    O65     O    0.75018   0.50002   0.91281   1.000
    O66     O    0.75006   0.50001   0.08724   1.000
    N67     N    0.87461   0.23686   0.24998   1.000
    O68     O    0.83282   0.34426   0.23175   1.000
    O69     O    0.90622   0.13219   0.25893   1.000
    O70     O    0.84388   0.13222   0.24105   1.000
    O71     O    0.91637   0.34428   0.26825   1.000
    N72     N    0.62486   0.26318   0.75002   1.000
    O73     O    0.58336   0.15576   0.73177   1.000
    O74     O    0.66694   0.15578   0.76826   1.000
    O75     O    0.59412   0.36782   0.74109   1.000
    O76     O    0.65651   0.36787   0.75895   1.000
    N77     N    1.00000   0.49999   0.50000   1.000
    O78     O    0.99999   0.49999   0.41280   1.000
    O79     O    0.00000   0.49999   0.58720   1.000
    N80     N    0.12539   0.26314   0.75002   1.000
    O81     O    0.08362   0.15571   0.73175   1.000
    O82     O    0.16718   0.15573   0.76826   1.000
    O83     O    0.09379   0.36780   0.74107   1.000
    O84     O    0.15620   0.36779   0.75894   1.000
    N85     N    0.62476   0.80561   0.24546   1.000
    O86     O    0.59403   0.88904   0.25666   1.000
    O87     O    0.65644   0.88908   0.23880   1.000
    N88     N    0.37520   0.73684   0.25000   1.000
    O89     O    0.40589   0.63218   0.25892   1.000
    O90     O    0.34352   0.63214   0.24106   1.000
    O91     O    0.41732   0.84424   0.26822   1.000
    O92     O    0.33316   0.84423   0.23178   1.000
    N93     N    0.12536   0.26313   0.24998   1.000
    O94     O    0.16714   0.15573   0.23174   1.000
    O95     O    0.08360   0.15571   0.26825   1.000
    O96     O    0.09376   0.36781   0.25892   1.000
    O97     O    0.15610   0.36777   0.24104   1.000
    N98     N    0.62480   0.74918   0.75002   1.000
    O99     O    0.58334   0.64877   0.73176   1.000
    O100    O    0.66691   0.64878   0.76827   1.000
    N101    N    0.87464   0.73685   0.24997   1.000
    O102    O    0.90622   0.63218   0.25892   1.000
    O103    O    0.84381   0.63220   0.24106   1.000
    O104    O    0.83298   0.84426   0.23170   1.000
    O105    O    0.91640   0.84427   0.26825   1.000
    N106    N    0.12538   0.76313   0.75002   1.000
    O107    O    0.08362   0.65570   0.73175   1.000
    O108    O    0.09379   0.86780   0.74107   1.000
    O109    O    0.15620   0.86778   0.75894   1.000
    O110    O    0.16717   0.65573   0.76825   1.000
    N111    N    0.62472   0.60743   0.25001   1.000
    O112    O    0.66679   0.57790   0.23179   1.000
    O113    O    0.58258   0.57789   0.26823   1.000
    N114    N    0.37539   0.23680   0.75000   1.000
    O115    O    0.34393   0.13210   0.75892   1.000
    O116    O    0.40679   0.13211   0.74107   1.000
    O117    O    0.33326   0.34420   0.76821   1.000
    O118    O    0.41745   0.34422   0.73178   1.000
    N119    N    0.62564   0.94501   0.70000   1.000
    O120    O    0.59450   0.95874   0.70358   1.000
loop_
    _geom_bond_atom_site_label_1
    _geom_bond_atom_site_label_2
    _geom_bond_distance
    _geom_bond_site_symmetry_2
    _ccdc_geom_bond_type
    N16    O17       2.07627      .   S
    Zr4    O17       3.05430      .   S
    N16    O18       2.07507      .   S
    Zr2    O18       3.05250      .   S
    N16    O19       1.95199      .   S
    Zr5    O19       2.77557      .   S
    N16    O20       1.95262      .   S
    Zr3    O20       2.77762      .   S
    N21    O22       2.31283  1_564   S
    Zr6    O22       3.36951      .   S
    N21    O23       2.31291  1_565   S
    Zr14   O23       3.36959      .   S
    N24    O25       2.31320  1_545   S
    Zr4    O25       3.37054      .   S
    N24    O26       2.31321  1_546   S
    Zr12   O26       3.37161      .   S
    N27    O28       2.07672      .   S
    Zr14   O28       3.05496      .   S
    N27    O29       2.07335      .   S
    Zr10   O29       3.04812  1_565   S
    N27    O30       1.95164      .   S
    Zr15   O30       2.77494      .   S
    N27    O31       1.95256      .   S
    Zr11   O31       2.77777      .   S
    N32    O33       2.31461      .   S
    Zr2    O33       3.37301  1_565   S
    N32    O34       2.31161      .   S
    Zr10   O34       3.36908  1_565   S
    N35    O36       2.07467      .   S
    Zr0    O36       3.05260  1_455   S
    N35    O37       1.95284      .   S
    Zr1    O37       2.77585  1_455   S
    N35    O38       1.94918      .   S
    Zr7    O38       2.76856      .   S
    N35    O39       2.07510      .   S
    Zr6    O39       3.05099  1_545   S
    N40    O41       2.07462      .   S
    Zr9    O41       3.05242  1_655   S
    N40    O42       2.07513      .   S
    Zr13   O42       3.05101      .   S
    N40    O43       1.95276      .   S
    Zr8    O43       2.77539      .   S
    N40    O44       1.94951      .   S
    Zr12   O44       2.76977      .   S
    N45    O46       2.31284  1_556   S
    Zr13   O46       3.37018      .   S
    N45    O47       2.31317      .   S
    Zr5    O47       3.37051      .   S
    N48    O49       2.07463      .   S
    Zr1    O49       3.05246  1_455   S
    N48    O50       2.07509      .   S
    Zr7    O50       3.05093      .   S
    N48    O51       1.95285      .   S
    Zr0    O51       2.77586  1_465   S
    N48    O52       1.94917      .   S
    Zr6    O52       2.76853      .   S
    N53    O54       2.31424      .   S
    Zr3    O54       3.37265      .   S
    N53    O55       2.31198      .   S
    Zr11   O55       3.36946      .   S
    N56    O57       2.31277  1_545   S
    Zr0    O57       3.36851      .   S
    N56    O58       2.31278      .   S
    Zr8    O58       3.36892  1_565   S
    N59    O60       2.07323      .   S
    Zr11   O60       3.04787      .   S
    N59    O61       2.07665      .   S
    Zr13   O61       3.05507      .   S
    N59    O62       1.95171      .   S
    Zr12   O62       2.77497  1_565   S
    N59    O63       1.95245      .   S
    Zr10   O63       2.77758  1_565   S
    N64    O65       2.31252  1_554   S
    Zr7    O65       3.36934      .   S
    N64    O66       2.31369      .   S
    Zr15   O66       3.37090      .   S
    N67    O68       2.07515      .   S
    Zr15   O68       3.05090      .   S
    N67    O69       1.95289      .   S
    Zr8    O69       2.77586  1_465   S
    N67    O70       1.94911      .   S
    Zr14   O70       2.76836      .   S
    N67    O71       2.07464      .   S
    Zr9    O71       3.05258      .   S
    N72    O73       2.07336      .   S
    Zr2    O73       3.04827  1_565   S
    N72    O74       2.07617      .   S
    Zr6    O74       3.05439      .   S
    N72    O75       1.95014      .   S
    Zr3    O75       2.76967      .   S
    N72    O76       1.95247      .   S
    Zr7    O76       2.77612      .   S
    N77    O78       2.31281      .   S
    Zr9    O78       3.36895      .   S
    N77    O79       2.31274  1_655   S
    Zr1    O79       3.36849      .   S
    N80    O81       2.07469      .   S
    Zr0    O81       3.05267  1_565   S
    N80    O82       2.07522      .   S
    Zr4    O82       3.05104  1_565   S
    N80    O83       1.95282      .   S
    Zr1    O83       2.77556      .   S
    N80    O84       1.94942      .   S
    Zr5    O84       2.76959      .   S
    N85    O86       1.58971      .   S
    Zr10   O86       2.46365      .   S
    N85    O87       1.57474      .   S
    Zr14   O87       2.43648  1_545   S
    N88    O89       1.95021      .   S
    Zr11   O89       2.76951      .   S
    N88    O90       1.95282      .   S
    Zr13   O90       2.77672      .   S
    N88    O91       2.07510      .   S
    Zr10   O91       3.05260      .   S
    N88    O92       2.07580      .   S
    Zr12   O92       3.05369      .   S
    N93    O94       2.07512      .   S
    Zr12   O94       3.05085  1_565   S
    N93    O95       2.07461      .   S
    Zr8    O95       3.05253  1_565   S
    N93    O96       1.95287      .   S
    Zr9    O96       2.77578  1_655   S
    N93    O97       1.94912      .   S
    Zr13   O97       2.76843      .   S
    N98    O99       1.95506      .   S
    Zr3    O99       2.93130      .   S
    N98    O100      1.95825      .   S
    Zr7    O100      2.93816      .   S
    N101   O102      1.95275      .   S
    Zr9    O102      2.77539      .   S
    N101   O103      1.94948      .   S
    Zr15   O103      2.76970      .   S
    N101   O104      2.07523      .   S
    Zr14   O104      3.05103  1_545   S
    N101   O105      2.07467      .   S
    Zr8    O105      3.05261  1_455   S
    N106   O107      2.07469      .   S
    Zr1    O107      3.05268      .   S
    N106   O108      1.95285      .   S
    Zr0    O108      2.77560      .   S
    N106   O109      1.94946      .   S
    Zr4    O109      2.76974      .   S
    N106   O110      2.07521      .   S
    Zr5    O110      3.05101      .   S
    N111   O112      0.90265      .   S
    Zr15   O112      1.83448      .   S
    N111   O113      0.90264      .   S
    Zr11   O113      1.83453      .   S
    N114   O115      1.95201      .   S
    Zr4    O115      2.77562  1_565   S
    N114   O116      1.95261      .   S
    Zr2    O116      2.77758  1_565   S
    N114   O117      2.07621      .   S
    Zr5    O117      3.05419      .   S
    N114   O118      2.07509      .   S
    Zr3    O118      3.05251      .   S
    N119   O120      0.48233      .   S
    Zr2    O120      1.44698      .   S
