# CIF file generated by openbabel 2.4.90, see http://openbabel.sf.net
data_I
_chemical_name_common 'Sr2CdH8C16(NO7)2'
_cell_length_a 10.878
_cell_length_b 18.066
_cell_length_c 18.067
_cell_angle_alpha 90.186
_cell_angle_beta 90.212
_cell_angle_gamma 90.427
_space_group_name_H-M_alt 'P 1'
_space_group_name_Hall 'P 1'
loop_
    _symmetry_equiv_pos_as_xyz
    x,y,z
loop_
    _atom_site_label
    _atom_site_type_symbol
    _atom_site_fract_x
    _atom_site_fract_y
    _atom_site_fract_z
    _atom_site_occupancy
    Sr0     Sr   0.93890   0.82940   0.40733   1.000
    Sr1     Sr   0.43647   0.17084   0.58873   1.000
    Sr2     Sr   0.68985   0.91028   0.66911   1.000
    Sr3     Sr   0.18600   0.09042   0.32664   1.000
    Sr4     Sr   0.81552   0.67239   0.90744   1.000
    Sr5     Sr   0.31418   0.32808   0.08921   1.000
    Sr6     Sr   0.06549   0.59072   0.16899   1.000
    Sr7     Sr   0.56356   0.40897   0.82851   1.000
    Cd8     Cd   0.00250   0.63332   0.36543   1.000
    Cd9     Cd   0.49865   0.36660   0.63227   1.000
    Cd10    Cd   0.75362   0.86901   0.86578   1.000
    Cd11    Cd   0.24727   0.13299   0.13089   1.000
    H12     H    0.14485   0.57277   0.60695   1.000
    H13     H    0.16094   0.57887   0.74488   1.000
    H14     H    0.06144   0.68094   0.81345   1.000
    H15     H    0.93043   0.77156   0.60784   1.000
    H16     H    0.64412   0.42956   0.39224   1.000
    H17     H    0.66040   0.42415   0.25440   1.000
    H18     H    0.56046   0.32164   0.18485   1.000
    H19     H    0.42771   0.22961   0.38937   1.000
    H20     H    0.89774   0.11075   0.92686   1.000
    H21     H    0.91263   0.24873   0.92175   1.000
    H22     H    0.81148   0.31683   0.81987   1.000
    H23     H    0.68087   0.11063   0.72754   1.000
    H24     H    0.39688   0.89317   0.06990   1.000
    H25     H    0.41412   0.75544   0.07631   1.000
    H26     H    0.31300   0.68665   0.17797   1.000
    H27     H    0.17800   0.89167   0.26739   1.000
    H28     H    0.60872   0.92846   0.10735   1.000
    H29     H    0.59145   0.92129   0.24508   1.000
    H30     H    0.69160   0.81916   0.31302   1.000
    H31     H    0.82536   0.73051   0.10722   1.000
    H32     H    0.10256   0.06942   0.88977   1.000
    H33     H    0.08855   0.07403   0.75182   1.000
    H34     H    0.18980   0.17605   0.68334   1.000
    H35     H    0.31950   0.26923   0.88918   1.000
    H36     H    0.85501   0.39310   0.42552   1.000
    H37     H    0.83839   0.25513   0.42052   1.000
    H38     H    0.93929   0.18580   0.31930   1.000
    H39     H    0.07227   0.39079   0.22737   1.000
    H40     H    0.35585   0.60648   0.57044   1.000
    H41     H    0.34227   0.74447   0.57449   1.000
    H42     H    0.44376   0.81455   0.67597   1.000
    H43     H    0.57177   0.61028   0.77005   1.000
    C44     C    0.03103   0.67108   0.51649   1.000
    C45     C    0.91269   0.78941   0.75472   1.000
    C46     C    0.03939   0.67288   0.59894   1.000
    C47     C    0.10232   0.61764   0.63777   1.000
    C48     C    0.11013   0.62097   0.71476   1.000
    C49     C    0.05256   0.67782   0.75350   1.000
    C50     C    0.98540   0.73176   0.71521   1.000
    C51     C    0.98117   0.72953   0.63788   1.000
    C52     C    0.52879   0.33054   0.48165   1.000
    C53     C    0.41088   0.21185   0.24241   1.000
    C54     C    0.53760   0.32886   0.39926   1.000
    C55     C    0.60124   0.38457   0.36101   1.000
    C56     C    0.60921   0.38158   0.28405   1.000
    C57     C    0.55145   0.32447   0.24477   1.000
    C58     C    0.48382   0.26993   0.28247   1.000
    C59     C    0.47913   0.27196   0.35978   1.000
    C60     C    0.78327   0.00000   0.82769   1.000
    C61     C    0.66158   0.25744   0.71083   1.000
    C62     C    0.79126   0.10222   0.82637   1.000
    C63     C    0.85452   0.14133   0.88205   1.000
    C64     C    0.86168   0.21836   0.87927   1.000
    C65     C    0.80317   0.25683   0.82254   1.000
    C66     C    0.73564   0.21823   0.76816   1.000
    C67     C    0.73202   0.14089   0.76985   1.000
    C68     C    0.27915   0.98322   0.16681   1.000
    C69     C    0.16229   0.74492   0.28586   1.000
    C70     C    0.28892   0.90091   0.16926   1.000
    C71     C    0.35364   0.86226   0.11456   1.000
    C72     C    0.36211   0.78537   0.11807   1.000
    C73     C    0.30376   0.74651   0.17470   1.000
    C74     C    0.23532   0.78461   0.22827   1.000
    C75     C    0.23010   0.86185   0.22575   1.000
    C76     C    0.72444   0.83134   0.01642   1.000
    C77     C    0.84209   0.71180   0.25412   1.000
    C78     C    0.71535   0.82885   0.09880   1.000
    C79     C    0.65146   0.88355   0.13789   1.000
    C80     C    0.64299   0.87961   0.21477   1.000
    C81     C    0.70088   0.82273   0.25318   1.000
    C82     C    0.76898   0.76932   0.21469   1.000
    C83     C    0.77386   0.77212   0.13743   1.000
    C84     C    0.21685   0.16908   0.00000   1.000
    C85     C    0.33871   0.28599   0.74247   1.000
    C86     C    0.20917   0.17015   0.89796   1.000
    C87     C    0.14608   0.11421   0.85905   1.000
    C88     C    0.13936   0.11673   0.78201   1.000
    C89     C    0.19788   0.17355   0.74334   1.000
    C90     C    0.26506   0.22825   0.78176   1.000
    C91     C    0.26848   0.22671   0.85909   1.000
    C92     C    0.97119   0.48287   0.32742   1.000
    C93     C    0.08898   0.24372   0.21071   1.000
    C94     C    0.96196   0.40043   0.32571   1.000
    C95     C    0.89796   0.36196   0.38101   1.000
    C96     C    0.88986   0.28494   0.37829   1.000
    C97     C    0.94804   0.24580   0.32192   1.000
    C98     C    0.01593   0.28375   0.26782   1.000
    C99     C    0.02066   0.36109   0.26947   1.000
    C100    C    0.46942   0.51746   0.67030   1.000
    C101    C    0.59229   0.75733   0.78593   1.000
    C102    C    0.46194   0.59992   0.67108   1.000
    C103    C    0.39926   0.63794   0.61504   1.000
    C104    C    0.39286   0.71498   0.61723   1.000
    C105    C    0.45154   0.75456   0.67375   1.000
    C106    C    0.51842   0.71707   0.72851   1.000
    C107    C    0.52122   0.63971   0.72741   1.000
    N108    N    0.70591   0.85278   0.50624   1.000
    N109    N    0.20130   0.14702   0.49006   1.000
    N110    N    0.45509   0.00000   0.64412   1.000
    N111    N    0.95161   0.99190   0.34974   1.000
    N112    N    0.04931   0.64737   0.00637   1.000
    N113    N    0.54870   0.35271   0.00000   1.000
    N114    N    0.29867   0.49123   0.14525   1.000
    N115    N    0.79883   0.50917   0.85171   1.000
    O116    O    0.08334   0.61910   0.48126   1.000
    O117    O    0.96902   0.72163   0.48389   1.000
    O118    O    0.89176   0.77958   0.82453   1.000
    O119    O    0.87072   0.84380   0.71904   1.000
    O120    O    0.70704   0.82471   0.44235   1.000
    O121    O    0.80761   0.87847   0.53453   1.000
    O122    O    0.60839   0.85619   0.54387   1.000
    O123    O    0.58335   0.38183   0.51744   1.000
    O124    O    0.46391   0.28048   0.51377   1.000
    O125    O    0.38949   0.22193   0.17261   1.000
    O126    O    0.36916   0.15688   0.27772   1.000
    O127    O    0.20297   0.17468   0.55411   1.000
    O128    O    0.30265   0.12175   0.46207   1.000
    O129    O    0.10382   0.14367   0.45187   1.000
    O130    O    0.83828   0.98457   0.87870   1.000
    O131    O    0.71854   0.98698   0.77772   1.000
    O132    O    0.63982   0.32707   0.72145   1.000
    O133    O    0.61917   0.22179   0.65598   1.000
    O134    O    0.45780   0.94400   0.67177   1.000
    O135    O    0.55597   0.03726   0.61903   1.000
    O136    O    0.35665   0.00000   0.64059   1.000
    O137    O    0.33329   0.01859   0.11560   1.000
    O138    O    0.21374   0.01571   0.21609   1.000
    O139    O    0.14111   0.67496   0.27578   1.000
    O140    O    0.12039   0.78056   0.34044   1.000
    O141    O    0.95260   0.05571   0.32197   1.000
    O142    O    0.05359   0.96452   0.37518   1.000
    O143    O    0.85443   0.95334   0.35321   1.000
    O144    O    0.67232   0.88347   0.98143   1.000
    O145    O    0.78696   0.78109   0.98364   1.000
    O146    O    0.86337   0.72193   0.32404   1.000
    O147    O    0.88409   0.65733   0.21844   1.000
    O148    O    0.04771   0.67545   0.94267   1.000
    O149    O    0.94771   0.62195   0.03446   1.000
    O150    O    0.14720   0.64375   0.04405   1.000
    O151    O    0.16149   0.11820   0.01578   1.000
    O152    O    0.28180   0.21918   0.01304   1.000
    O153    O    0.35990   0.27585   0.67268   1.000
    O154    O    0.38111   0.34082   0.77819   1.000
    O155    O    0.54705   0.32505   0.05484   1.000
    O156    O    0.44738   0.37796   0.96261   1.000
    O157    O    0.64624   0.35618   0.00000   1.000
    O158    O    0.91668   0.51832   0.37839   1.000
    O159    O    0.03642   0.51538   0.27797   1.000
    O160    O    0.10986   0.17410   0.22141   1.000
    O161    O    0.13128   0.27864   0.15577   1.000
    O162    O    0.29736   0.55565   0.17213   1.000
    O163    O    0.19753   0.46262   0.11906   1.000
    O164    O    0.39586   0.45332   0.14361   1.000
    O165    O    0.41642   0.48149   0.61851   1.000
    O166    O    0.53168   0.48562   0.72137   1.000
    O167    O    0.61392   0.82713   0.77565   1.000
    O168    O    0.63453   0.72220   0.84071   1.000
    O169    O    0.79657   0.44474   0.82489   1.000
    O170    O    0.69822   0.53731   0.87782   1.000
    O171    O    0.89645   0.54751   0.85342   1.000
loop_
    _geom_bond_atom_site_label_1
    _geom_bond_atom_site_label_2
    _geom_bond_distance
    _geom_bond_site_symmetry_2
    _ccdc_geom_bond_type
    N113   O157      1.06238      .   S
    N113   O155      1.11129      .   S
    N113   O156      1.37222  1_554   S
    C84    O152      1.16687      .   S
    C84    O151      1.13299      .   S
    C84    C86       1.84527  1_554   S
    N112   O149      1.29925  1_455   S
    N112   O150      1.26384      .   S
    N112   O148      1.25929  1_554   S
    O152   Sr5       2.42004      .   S
    O151   Cd11      2.29016      .   S
    C76    C78       1.49277      .   S
    C76    O144      1.27162  1_554   S
    C76    O145      1.28304  1_554   S
    H24    C71       1.08891      .   S
    H25    C72       1.08940      .   S
    Sr5    O161      2.49005      .   S
    C78    C83       1.39771      .   S
    C78    C79       1.40270      .   S
    H31    C83       1.08755      .   S
    H28    C79       1.08888      .   S
    C71    C72       1.39443      .   S
    C71    C70       1.40286      .   S
    O137   Cd11      2.29133      .   S
    O137   C68       1.27027  1_545   S
    C72    C73       1.39472      .   S
    O163   N114      1.29904      .   S
    Cd11   O125      2.34306      .   S
    Cd11   O160      2.34243      .   S
    C83    C82       1.39815      .   S
    C79    C80       1.39434      .   S
    O164   N114      1.26433      .   S
    N114   O162      1.25974      .   S
    O161   C93       1.26408      .   S
    C68    C70       1.49229      .   S
    C68    O138      1.28505  1_565   S
    Sr6    O147      2.48632  1_455   S
    Sr6    O159      2.41764      .   S
    C70    C75       1.39702      .   S
    O125   C53       1.29527      .   S
    C73    H26       1.08858      .   S
    C73    C74       1.40477      .   S
    H18    C57       1.08837      .   S
    C93    O160      1.29474      .   S
    C93    C98       1.49306      .   S
    C82    C81       1.40485      .   S
    C82    C77       1.49431      .   S
    C80    H29       1.08939      .   S
    C80    C81       1.39465      .   S
    O138   Sr3       2.42793      .   S
    O147   C77       1.26380      .   S
    C75    C74       1.39799      .   S
    C75    H27       1.08747      .   S
    H39    C99       1.08757      .   S
    C74    C69       1.49349      .   S
    C53    O126      1.26425      .   S
    C53    C58       1.49431      .   S
    C57    C58       1.40480      .   S
    C57    C56       1.39476      .   S
    C81    H30       1.08832      .   S
    C77    O146      1.29558      .   S
    H17    C56       1.08942      .   S
    C98    C99       1.39808      .   S
    C98    C97       1.40464  1_455   S
    C99    C94       1.39712  1_455   S
    O139   C69       1.29512      .   S
    O139   Cd8       2.33917      .   S
    O126   Sr3       2.48535      .   S
    O159   C92       1.28393  1_455   S
    C58    C59       1.39811      .   S
    C56    C55       1.39432      .   S
    C69    O140      1.26420      .   S
    H38    C97       1.08833      .   S
    C97    C96       1.39444      .   S
    O141   N111      1.25886  1_545   S
    O146   Cd8       2.33401  1_655   S
    C94    C92       1.49226      .   S
    C94    C95       1.40295      .   S
    C92    O158      1.27102      .   S
    O140   Sr0       2.48461  1_455   S
    N111   O143      1.26344      .   S
    N111   O142      1.30089  1_655   S
    C59    H19       1.08749      .   S
    C59    C54       1.39720      .   S
    C55    H16       1.08893      .   S
    C55    C54       1.40278      .   S
    Cd8    O158      2.28447  1_455   S
    Cd8    O116      2.28289      .   S
    C96    C95       1.39429      .   S
    C96    H37       1.08943      .   S
    C95    H36       1.08875      .   S
    C54    C52       1.49209      .   S
    Sr0    O117      2.41562      .   S
    O120   N108      1.25937      .   S
    O129   N109      1.26382      .   S
    O128   N109      1.29992      .   S
    O116   C44       1.27179      .   S
    C52    O124      1.28442      .   S
    C52    O123      1.27050      .   S
    O117   C44       1.28292  1_655   S
    N109   O127      1.25905      .   S
    N108   O121      1.29900      .   S
    N108   O122      1.26394      .   S
    O124   Sr1       2.42026      .   S
    C44    C46       1.49233      .   S
    O123   Cd9       2.28983      .   S
    H40    C103      1.08885      .   S
    H41    C104      1.08943      .   S
    Sr1    O133      2.49415      .   S
    C46    C47       1.40279      .   S
    C46    C51       1.39712  1_455   S
    H12    C47       1.08881      .   S
    H15    C51       1.08746      .   S
    C103   C104      1.39448      .   S
    C103   C102      1.40283      .   S
    C104   C105      1.39473      .   S
    O165   Cd9       2.28015      .   S
    O165   C100      1.27150      .   S
    O135   N110      1.36289      .   S
    Cd9    O153      2.34046      .   S
    Cd9    O132      2.33873      .   S
    C47    C48       1.39435      .   S
    C51    C50       1.39802      .   S
    O136   N110      1.07254      .   S
    N110   O134      1.13020  1_545   S
    O133   C61       1.26399      .   S
    Sr2    O119      2.48122      .   S
    Sr2    O131      2.41630      .   S
    C100   C102      1.49265      .   S
    C100   O166      1.28276      .   S
    C102   C107      1.39710      .   S
    O153   C85       1.29537      .   S
    C105   H42       1.08831      .   S
    C105   C106      1.40472      .   S
    H34    C89       1.08829      .   S
    C61    O132      1.29557      .   S
    C61    C66       1.49373      .   S
    C48    H13       1.08942      .   S
    C48    C49       1.39466      .   S
    C50    C49       1.40462  1_655   S
    C50    C45       1.49381      .   S
    O119   C45       1.26422      .   S
    O166   Sr7       2.40923      .   S
    C107   C106      1.39812      .   S
    C107   H43       1.08742      .   S
    H23    C67       1.08750      .   S
    C106   C101      1.49378      .   S
    C85    O154      1.26391      .   S
    C85    C90       1.49358      .   S
    C89    C90       1.40483      .   S
    C89    C88       1.39468      .   S
    H33    C88       1.08948      .   S
    C49    H14       1.08830      .   S
    C45    O118      1.29510      .   S
    C66    C67       1.39798      .   S
    C66    C65       1.40482      .   S
    C67    C62       1.39732      .   S
    O167   C101      1.29509      .   S
    O167   Cd10      2.34301      .   S
    O131   C60       1.16516  1_565   S
    O154   Sr7       2.49494      .   S
    C90    C91       1.39779      .   S
    C88    C87       1.39444      .   S
    C101   O168      1.26427      .   S
    H22    C65       1.08818      .   S
    C65    C64       1.39460      .   S
    O118   Cd10      2.33665      .   S
    O169   N115      1.25931      .   S
    C62    C60       1.84827      .   S
    C62    C63       1.40280      .   S
    C60    O130      1.13375  1_545   S
    O168   Sr4       2.48090      .   S
    N115   O171      1.26381      .   S
    N115   O170      1.29974      .   S
    C87    H32       1.08895      .   S
    C87    C86       1.40294      .   S
    C91    H35       1.08743      .   S
    C91    C86       1.39702      .   S
    Cd10   O130      2.28628      .   S
    Cd10   O144      2.28698      .   S
    C64    C63       1.39437      .   S
    C64    H21       1.08946      .   S
    C63    H20       1.08884      .   S
    Sr4    O145      2.41723      .   S
    O118   Sr4       2.58560      .   S
    O120   Sr0       2.60339      .   S
    O121   Sr0       2.85251      .   S
    O121   Sr2       2.81226      .   S
    O122   Sr2       2.61114      .   S
    O125   Sr5       2.57914      .   S
    O127   Sr1       2.61519      .   S
    O128   Sr1       2.84349      .   S
    O128   Sr3       2.80609      .   S
    O129   Sr3       2.61864      .   S
    O132   Sr7       2.57500      .   S
    O134   Sr2       2.60172      .   S
    O134   O136      1.60214  1_565   S
    O135   Sr1       2.80420      .   S
    O135   Sr2       2.87328  1_545   S
    O139   Sr6       2.58186      .   S
    O141   Sr3       2.61162  1_655   S
    O142   Sr0       2.79676  1_455   S
    O142   Sr3       2.82667  1_565   S
    O143   Sr0       2.61755      .   S
    O146   Sr0       2.58012      .   S
    O148   Sr4       2.60257  1_455   S
    O149   Sr4       2.85905  1_554   S
    O149   Sr6       2.80423  1_655   S
    O150   Sr6       2.61147      .   S
    O153   Sr1       2.57047      .   S
    O155   Sr5       2.61127      .   S
    O155   O157      1.56995      .   S
    O156   Sr5       2.85686  1_556   S
    O156   Sr7       2.79315      .   S
    O160   Sr3       2.57135      .   S
    O162   Sr6       2.60572      .   S
    O163   Sr5       2.80208      .   S
    O163   Sr6       2.87721      .   S
    O164   Sr5       2.61239      .   S
    O167   Sr2       2.57988      .   S
    O169   Sr7       2.61212      .   S
    O170   Sr4       2.79475      .   S
    O170   Sr7       2.87062      .   S
    O171   Sr4       2.61519      .   S
