# CIF file generated by openbabel 2.4.90, see http://openbabel.sf.net
data_I
_chemical_name_common ''
_cell_length_a 23.037
_cell_length_b 15.262
_cell_length_c 18.164
_cell_angle_alpha 89.982
_cell_angle_beta 90
_cell_angle_gamma 89.902
_space_group_name_H-M_alt 'P 1'
_space_group_name_Hall 'P 1'
loop_
    _symmetry_equiv_pos_as_xyz
    x,y,z
loop_
    _atom_site_label
    _atom_site_type_symbol
    _atom_site_fract_x
    _atom_site_fract_y
    _atom_site_fract_z
    _atom_site_occupancy
    Zr0     Zr   0.25001   0.55192   0.09709   1.000
    Zr1     Zr   0.75002   0.55192   0.09709   1.000
    Zr2     Zr   0.25000   0.44805   0.90280   1.000
    Zr3     Zr   0.75001   0.44805   0.90280   1.000
    Zr4     Zr   0.25001   0.94801   0.59705   1.000
    Zr5     Zr   0.75001   0.94801   0.59705   1.000
    Zr6     Zr   0.25000   0.05196   0.40290   1.000
    Zr7     Zr   0.75001   0.05196   0.40290   1.000
    N8      N    0.50001   0.44493   0.90497   1.000
    O9      O    0.60122   0.44613   0.90506   1.000
    O10     O    0.39880   0.44612   0.90506   1.000
    N11     N    0.00001   0.55504   0.09499   1.000
    O12     O    0.10121   0.55385   0.09489   1.000
    O13     O    0.89880   0.55384   0.09488   1.000
    N14     N    0.25000   0.99999   0.99995   1.000
    O15     O    0.24999   0.79794   0.02750   1.000
    O16     O    0.25001   0.97035   0.82572   1.000
    O17     O    0.25000   0.02962   0.17421   1.000
    O18     O    0.25002   0.24238   0.04982   1.000
    O19     O    0.24999   0.75760   0.95009   1.000
    O20     O    0.25001   0.20203   0.97241   1.000
    N21     N    0.75002   0.99999   0.99995   1.000
    O22     O    0.75000   0.79794   0.02750   1.000
    O23     O    0.75003   0.24238   0.04982   1.000
    O24     O    0.75000   0.75760   0.95009   1.000
    O25     O    0.75001   0.02962   0.17421   1.000
    O26     O    0.75002   0.20203   0.97241   1.000
    O27     O    0.75001   0.97035   0.82572   1.000
    N28     N    0.75001   0.49999   0.49998   1.000
    O29     O    0.75001   0.52962   0.32575   1.000
    O30     O    0.75002   0.70201   0.52749   1.000
    O31     O    0.75003   0.74240   0.45012   1.000
    O32     O    0.75001   0.47035   0.67419   1.000
    O33     O    0.75000   0.29796   0.47246   1.000
    O34     O    0.75000   0.25758   0.54983   1.000
    N35     N    0.50001   0.94486   0.59496   1.000
    O36     O    0.60122   0.94606   0.59484   1.000
    O37     O    0.39880   0.94605   0.59485   1.000
    N38     N    0.50000   0.05511   0.40497   1.000
    O39     O    0.39880   0.05391   0.40510   1.000
    O40     O    0.60121   0.05392   0.40510   1.000
    N41     N    0.25000   0.49999   0.49998   1.000
    O42     O    0.25002   0.70201   0.52749   1.000
    O43     O    0.25002   0.74240   0.45012   1.000
    O44     O    0.25000   0.52962   0.32575   1.000
    O45     O    0.24999   0.29796   0.47246   1.000
    O46     O    0.24999   0.25758   0.54983   1.000
    O47     O    0.25000   0.47035   0.67419   1.000
    N48     N    0.00001   0.94486   0.59495   1.000
    O49     O    0.89881   0.94605   0.59484   1.000
    O50     O    0.10122   0.94606   0.59484   1.000
    N51     N    0.00000   0.05511   0.40497   1.000
    O52     O    0.89880   0.05391   0.40510   1.000
    O53     O    0.10121   0.05392   0.40510   1.000
    N54     N    0.50001   0.55504   0.09499   1.000
    O55     O    0.39880   0.55384   0.09488   1.000
    O56     O    0.60122   0.55385   0.09489   1.000
    N57     N    0.00001   0.44493   0.90497   1.000
    O58     O    0.10121   0.44613   0.90506   1.000
    O59     O    0.89881   0.44612   0.90506   1.000
loop_
    _geom_bond_atom_site_label_1
    _geom_bond_atom_site_label_2
    _geom_bond_distance
    _geom_bond_site_symmetry_2
    _ccdc_geom_bond_type
    N8     O9        2.33159      .   S
    Zr3    O9        3.42818      .   S
    N8     O10       2.33161      .   S
    Zr2    O10       3.42822      .   S
    N11    O12       2.33150      .   S
    Zr0    O12       3.42810      .   S
    N11    O13       2.33148  1_455   S
    Zr1    O13       3.42806      .   S
    N14    O15       3.12378  1_556   S
    Zr0    O15       3.96147      .   S
    N14    O16       3.19704      .   S
    Zr4    O16       4.16768      .   S
    N14    O17       3.19751  1_566   S
    Zr6    O17       4.16797      .   S
    N14    O18       3.80893  1_566   S
    Zr0    O18       4.80187      .   S
    N14    O19       3.80889      .   S
    Zr2    O19       4.80196      .   S
    N14    O20       3.12375  1_565   S
    Zr2    O20       3.96163      .   S
    N21    O22       3.12378  1_556   S
    Zr1    O22       3.96147      .   S
    N21    O23       3.80893  1_566   S
    Zr1    O23       4.80187      .   S
    N21    O24       3.80889      .   S
    Zr3    O24       4.80196      .   S
    N21    O25       3.19751  1_566   S
    Zr7    O25       4.16797      .   S
    N21    O26       3.12375  1_565   S
    Zr3    O26       3.96163      .   S
    N21    O27       3.19704      .   S
    Zr5    O27       4.16768      .   S
    N28    O29       3.19669      .   S
    Zr1    O29       4.16715      .   S
    N28    O30       3.12366      .   S
    Zr5    O30       3.96173      .   S
    N28    O31       3.80858      .   S
    Zr7    O31       4.80158  1_545   S
    N28    O32       3.19645      .   S
    Zr3    O32       4.16628      .   S
    N28    O33       3.12365      .   S
    Zr7    O33       3.96177      .   S
    N28    O34       3.80860      .   S
    Zr5    O34       4.80156  1_565   S
    N35    O36       2.33161      .   S
    Zr5    O36       3.42818      .   S
    N35    O37       2.33160      .   S
    Zr4    O37       3.42819      .   S
    N38    O39       2.33161      .   S
    Zr6    O39       3.42817      .   S
    N38    O40       2.33160      .   S
    Zr7    O40       3.42819      .   S
    N41    O42       3.12366      .   S
    Zr4    O42       3.96173      .   S
    N41    O43       3.80858      .   S
    Zr6    O43       4.80158  1_545   S
    N41    O44       3.19669      .   S
    Zr0    O44       4.16715      .   S
    N41    O45       3.12365      .   S
    Zr6    O45       3.96177      .   S
    N41    O46       3.80860      .   S
    Zr4    O46       4.80157  1_565   S
    N41    O47       3.19641      .   S
    Zr2    O47       4.16633      .   S
    N48    O49       2.33150  1_455   S
    Zr5    O49       3.42809      .   S
    N48    O50       2.33150      .   S
    Zr4    O50       3.42808      .   S
    N51    O52       2.33150  1_455   S
    Zr7    O52       3.42808      .   S
    N51    O53       2.33149      .   S
    Zr6    O53       3.42810      .   S
    N54    O55       2.33160      .   S
    Zr0    O55       3.42818      .   S
    N54    O56       2.33161      .   S
    Zr1    O56       3.42821      .   S
    N57    O58       2.33148      .   S
    Zr2    O58       3.42808      .   S
    N57    O59       2.33150  1_455   S
    Zr3    O59       3.42812      .   S
