# CIF file generated by openbabel 2.4.90, see http://openbabel.sf.net
data_I
_chemical_name_common ''
_cell_length_a 14.678
_cell_length_b 21.376
_cell_length_c 21.376
_cell_angle_alpha 83.236
_cell_angle_beta 69.927
_cell_angle_gamma 69.929
_space_group_name_H-M_alt 'P 1'
_space_group_name_Hall 'P 1'
loop_
    _symmetry_equiv_pos_as_xyz
    x,y,z
loop_
    _atom_site_label
    _atom_site_type_symbol
    _atom_site_fract_x
    _atom_site_fract_y
    _atom_site_fract_z
    _atom_site_occupancy
    Ca0     Ca   0.06250   0.23090   0.51910   1.000
    Ca1     Ca   0.06240   0.73109   0.01916   1.000
    Ca2     Ca   0.06242   0.73112   0.51888   1.000
    Ca3     Ca   0.56254   0.23096   0.01890   1.000
    Ca4     Ca   0.56249   0.23090   0.51917   1.000
    Ca5     Ca   0.56240   0.73109   0.01916   1.000
    Ca6     Ca   0.56241   0.73112   0.51888   1.000
    Ca7     Ca   0.31251   0.26890   0.48108   1.000
    Ca8     Ca   0.31253   0.26893   0.98088   1.000
    Ca9     Ca   0.31249   0.76913   0.48082   1.000
    Ca10    Ca   0.31250   0.76908   0.98115   1.000
    Ca11    Ca   0.81251   0.26890   0.48108   1.000
    Ca12    Ca   0.81252   0.26893   0.98088   1.000
    Ca13    Ca   0.81248   0.76913   0.48082   1.000
    Ca14    Ca   0.81249   0.76908   0.98115   1.000
    Ca15    Ca   0.41846   0.01921   0.26888   1.000
    Ca16    Ca   0.41851   0.01887   0.76912   1.000
    Ca17    Ca   0.41860   0.51891   0.26893   1.000
    Ca18    Ca   0.41835   0.51922   0.76907   1.000
    Ca19    Ca   0.91846   0.01921   0.26888   1.000
    Ca20    Ca   0.91851   0.01886   0.76912   1.000
    Ca21    Ca   0.91859   0.51891   0.26892   1.000
    Ca22    Ca   0.91834   0.51922   0.76907   1.000
    Ca23    Ca   0.20672   0.48084   0.23088   1.000
    Ca24    Ca   0.20647   0.48111   0.73110   1.000
    Ca25    Ca   0.20653   0.98111   0.23089   1.000
    Ca26    Ca   0.20659   0.98084   0.73112   1.000
    Ca27    Ca   0.70672   0.48084   0.23088   1.000
    Ca28    Ca   0.70647   0.48111   0.73109   1.000
    Ca29    Ca   0.70652   0.98111   0.23089   1.000
    Ca30    Ca   0.70658   0.98085   0.73112   1.000
    Ca31    Ca   0.06255   0.23096   0.01889   1.000
