# CIF file generated by openbabel 2.4.90, see http://openbabel.sf.net
data_I
_chemical_name_common ''
_cell_length_a 14.678
_cell_length_b 21.376
_cell_length_c 21.376
_cell_angle_alpha 83.236
_cell_angle_beta 69.927
_cell_angle_gamma 69.929
_space_group_name_H-M_alt 'P 1'
_space_group_name_Hall 'P 1'
loop_
    _symmetry_equiv_pos_as_xyz
    x,y,z
loop_
    _atom_site_label
    _atom_site_type_symbol
    _atom_site_fract_x
    _atom_site_fract_y
    _atom_site_fract_z
    _atom_site_occupancy
    Ca0     Ca   0.06250   0.23090   0.51910   1.000
    Ca1     Ca   0.06240   0.73109   0.01916   1.000
    Ca2     Ca   0.06242   0.73112   0.51888   1.000
    Ca3     Ca   0.56254   0.23096   0.01890   1.000
    Ca4     Ca   0.56249   0.23090   0.51917   1.000
    Ca5     Ca   0.56240   0.73109   0.01916   1.000
    Ca6     Ca   0.56241   0.73112   0.51888   1.000
    Ca7     Ca   0.31251   0.26890   0.48108   1.000
    Ca8     Ca   0.31253   0.26893   0.98088   1.000
    Ca9     Ca   0.31249   0.76913   0.48082   1.000
    Ca10    Ca   0.31250   0.76908   0.98115   1.000
    Ca11    Ca   0.81251   0.26890   0.48108   1.000
    Ca12    Ca   0.81252   0.26893   0.98088   1.000
    Ca13    Ca   0.81248   0.76913   0.48082   1.000
    Ca14    Ca   0.81249   0.76908   0.98115   1.000
    Ca15    Ca   0.41846   0.01921   0.26888   1.000
    Ca16    Ca   0.41851   0.01887   0.76912   1.000
    Ca17    Ca   0.41860   0.51891   0.26893   1.000
    Ca18    Ca   0.41835   0.51922   0.76907   1.000
    Ca19    Ca   0.91846   0.01921   0.26888   1.000
    Ca20    Ca   0.91851   0.01886   0.76912   1.000
    Ca21    Ca   0.91859   0.51891   0.26892   1.000
    Ca22    Ca   0.91834   0.51922   0.76907   1.000
    Ca23    Ca   0.20672   0.48084   0.23088   1.000
    Ca24    Ca   0.20647   0.48111   0.73110   1.000
    Ca25    Ca   0.20653   0.98111   0.23089   1.000
    Ca26    Ca   0.20659   0.98084   0.73112   1.000
    Ca27    Ca   0.70672   0.48084   0.23088   1.000
    Ca28    Ca   0.70647   0.48111   0.73109   1.000
    Ca29    Ca   0.70652   0.98111   0.23089   1.000
    Ca30    Ca   0.70658   0.98085   0.73112   1.000
    Ca31    Ca   0.06255   0.23096   0.01889   1.000
    Ts32    Ts   0.09903   0.25285   0.49380   1.000
    Ts33    Ts   0.04071   0.26069   0.54324   1.000
    Ts34    Ts   0.01241   0.22156   0.53169   1.000
    Ts35    Ts   0.11265   0.21828   0.52838   1.000
    Ts36    Ts   0.02600   0.25618   0.49714   1.000
    Ts37    Ts   0.08422   0.20701   0.48918   1.000
    Ts38    Ts   0.09885   0.75315   0.99401   1.000
    Ts39    Ts   0.04049   0.76107   0.04304   1.000
    Ts40    Ts   0.01233   0.72174   0.03169   1.000
    Ts41    Ts   0.11247   0.71851   0.02849   1.000
    Ts42    Ts   0.02598   0.75629   0.99711   1.000
    Ts43    Ts   0.08422   0.70702   0.98936   1.000
    Ts44    Ts   0.09894   0.75313   0.49360   1.000
    Ts45    Ts   0.04056   0.76097   0.54292   1.000
    Ts46    Ts   0.01225   0.72186   0.53152   1.000
    Ts47    Ts   0.11255   0.71851   0.52818   1.000
    Ts48    Ts   0.02589   0.75644   0.49692   1.000
    Ts49    Ts   0.08426   0.70705   0.48903   1.000
    Ts50    Ts   0.59898   0.25294   0.99369   1.000
    Ts51    Ts   0.54080   0.26082   0.04288   1.000
    Ts52    Ts   0.51251   0.22161   0.03141   1.000
    Ts53    Ts   0.61258   0.21842   0.02827   1.000
    Ts54    Ts   0.52608   0.25616   0.99677   1.000
    Ts55    Ts   0.58437   0.20695   0.98907   1.000
    Ts56    Ts   0.59903   0.25285   0.49384   1.000
    Ts57    Ts   0.54070   0.26069   0.54329   1.000
    Ts58    Ts   0.51240   0.22156   0.53174   1.000
    Ts59    Ts   0.61264   0.21828   0.52843   1.000
    Ts60    Ts   0.52600   0.25618   0.49718   1.000
    Ts61    Ts   0.58421   0.20700   0.48923   1.000
    Ts62    Ts   0.59884   0.75316   0.99402   1.000
    Ts63    Ts   0.54049   0.76107   0.04304   1.000
    Ts64    Ts   0.51233   0.72174   0.03169   1.000
    Ts65    Ts   0.61246   0.71851   0.02849   1.000
    Ts66    Ts   0.52598   0.75629   0.99711   1.000
    Ts67    Ts   0.58422   0.70702   0.98935   1.000
    Ts68    Ts   0.59893   0.75313   0.49360   1.000
    Ts69    Ts   0.54055   0.76097   0.54294   1.000
    Ts70    Ts   0.51225   0.72186   0.53152   1.000
    Ts71    Ts   0.61254   0.71851   0.52818   1.000
    Ts72    Ts   0.52589   0.75644   0.49693   1.000
    Ts73    Ts   0.58425   0.70706   0.48902   1.000
    Ts74    Ts   0.26571   0.27818   0.46845   1.000
    Ts75    Ts   0.34576   0.24689   0.50635   1.000
    Ts76    Ts   0.34451   0.23903   0.45704   1.000
    Ts77    Ts   0.27933   0.24360   0.50304   1.000
    Ts78    Ts   0.28041   0.29293   0.51094   1.000
    Ts79    Ts   0.35935   0.28151   0.47179   1.000
    Ts80    Ts   0.26564   0.27826   0.96835   1.000
    Ts81    Ts   0.34584   0.24692   0.00607   1.000
    Ts82    Ts   0.34456   0.23892   0.95703   1.000
    Ts83    Ts   0.27924   0.24374   0.00292   1.000
    Ts84    Ts   0.28054   0.29295   0.01076   1.000
    Ts85    Ts   0.35940   0.28147   0.97142   1.000
    Ts86    Ts   0.26565   0.77847   0.46823   1.000
    Ts87    Ts   0.34563   0.74720   0.50615   1.000
    Ts88    Ts   0.34463   0.73935   0.45671   1.000
    Ts89    Ts   0.27926   0.74385   0.50281   1.000
    Ts90    Ts   0.28042   0.79299   0.51079   1.000
    Ts91    Ts   0.35927   0.78178   0.47156   1.000
    Ts92    Ts   0.26558   0.77848   0.96867   1.000
    Ts93    Ts   0.34573   0.74707   0.00635   1.000
    Ts94    Ts   0.34454   0.73921   0.95713   1.000
    Ts95    Ts   0.27920   0.74383   0.00315   1.000
    Ts96    Ts   0.28044   0.79296   0.01109   1.000
    Ts97    Ts   0.35938   0.78161   0.97177   1.000
    Ts98    Ts   0.76571   0.27818   0.46845   1.000
    Ts99    Ts   0.84575   0.24689   0.50635   1.000
    Ts100   Ts   0.84450   0.23903   0.45705   1.000
    Ts101   Ts   0.77932   0.24361   0.50304   1.000
    Ts102   Ts   0.78040   0.29294   0.51094   1.000
    Ts103   Ts   0.85934   0.28151   0.47180   1.000
    Ts104   Ts   0.76563   0.27826   0.96835   1.000
    Ts105   Ts   0.84583   0.24692   0.00605   1.000
    Ts106   Ts   0.84455   0.23892   0.95704   1.000
    Ts107   Ts   0.77923   0.24374   0.00292   1.000
    Ts108   Ts   0.78054   0.29295   0.01076   1.000
    Ts109   Ts   0.85939   0.28147   0.97142   1.000
    Ts110   Ts   0.76564   0.77847   0.46823   1.000
    Ts111   Ts   0.84562   0.74720   0.50615   1.000
    Ts112   Ts   0.84462   0.73935   0.45671   1.000
    Ts113   Ts   0.77926   0.74385   0.50281   1.000
    Ts114   Ts   0.78041   0.79299   0.51078   1.000
    Ts115   Ts   0.85927   0.78178   0.47155   1.000
    Ts116   Ts   0.76557   0.77848   0.96868   1.000
    Ts117   Ts   0.84572   0.74707   0.00635   1.000
    Ts118   Ts   0.84453   0.73921   0.95716   1.000
    Ts119   Ts   0.77919   0.74383   0.00315   1.000
    Ts120   Ts   0.78043   0.79296   0.01107   1.000
    Ts121   Ts   0.85937   0.78162   0.97177   1.000
    Ts122   Ts   0.41647   0.04307   0.23889   1.000
    Ts123   Ts   0.40720   0.99399   0.24687   1.000
    Ts124   Ts   0.45604   0.03174   0.27818   1.000
    Ts125   Ts   0.47696   0.99711   0.24373   1.000
    Ts126   Ts   0.42641   0.98944   0.29300   1.000
    Ts127   Ts   0.35905   0.02859   0.28142   1.000
    Ts128   Ts   0.41629   0.04286   0.73926   1.000
    Ts129   Ts   0.40728   0.99366   0.74711   1.000
    Ts130   Ts   0.45606   0.03134   0.77851   1.000
    Ts131   Ts   0.47706   0.99681   0.74390   1.000
    Ts132   Ts   0.42666   0.98895   0.79303   1.000
    Ts133   Ts   0.35911   0.02824   0.78168   1.000
    Ts134   Ts   0.41645   0.54289   0.23903   1.000
    Ts135   Ts   0.47708   0.49693   0.24369   1.000
    Ts136   Ts   0.40739   0.49364   0.24693   1.000
    Ts137   Ts   0.45613   0.53160   0.27814   1.000
    Ts138   Ts   0.42664   0.48906   0.29299   1.000
    Ts139   Ts   0.35916   0.52823   0.28151   1.000
    Ts140   Ts   0.40715   0.49392   0.74709   1.000
    Ts141   Ts   0.41592   0.54339   0.73934   1.000
    Ts142   Ts   0.45588   0.53178   0.77842   1.000
    Ts143   Ts   0.47685   0.49723   0.74379   1.000
    Ts144   Ts   0.42662   0.48924   0.79291   1.000
    Ts145   Ts   0.35893   0.52845   0.78173   1.000
    Ts146   Ts   0.97696   0.99710   0.24373   1.000
    Ts147   Ts   0.90720   0.99399   0.24687   1.000
    Ts148   Ts   0.91647   0.04306   0.23889   1.000
    Ts149   Ts   0.95603   0.03174   0.27818   1.000
    Ts150   Ts   0.92641   0.98944   0.29300   1.000
    Ts151   Ts   0.85905   0.02859   0.28143   1.000
    Ts152   Ts   0.90728   0.99366   0.74711   1.000
    Ts153   Ts   0.97706   0.99680   0.74390   1.000
    Ts154   Ts   0.91628   0.04286   0.73926   1.000
    Ts155   Ts   0.95606   0.03134   0.77851   1.000
    Ts156   Ts   0.92666   0.98894   0.79301   1.000
    Ts157   Ts   0.85911   0.02823   0.78168   1.000
    Ts158   Ts   0.97708   0.49693   0.24368   1.000
    Ts159   Ts   0.90739   0.49364   0.24692   1.000
    Ts160   Ts   0.91644   0.54289   0.23902   1.000
    Ts161   Ts   0.95613   0.53160   0.27814   1.000
    Ts162   Ts   0.92664   0.48906   0.29298   1.000
    Ts163   Ts   0.85916   0.52823   0.28151   1.000
    Ts164   Ts   0.97685   0.49723   0.74379   1.000
    Ts165   Ts   0.90714   0.49392   0.74709   1.000
    Ts166   Ts   0.91591   0.54338   0.73934   1.000
    Ts167   Ts   0.95588   0.53178   0.77842   1.000
    Ts168   Ts   0.92662   0.48924   0.79291   1.000
    Ts169   Ts   0.85893   0.52845   0.78173   1.000
    Ts170   Ts   0.16916   0.47155   0.21832   1.000
    Ts171   Ts   0.26614   0.46825   0.22157   1.000
    Ts172   Ts   0.14821   0.50621   0.25278   1.000
    Ts173   Ts   0.19869   0.45673   0.26067   1.000
    Ts174   Ts   0.21791   0.50285   0.25615   1.000
    Ts175   Ts   0.20893   0.51070   0.20687   1.000
    Ts176   Ts   0.16894   0.47182   0.71848   1.000
    Ts177   Ts   0.26590   0.46852   0.72178   1.000
    Ts178   Ts   0.14797   0.50637   0.75310   1.000
    Ts179   Ts   0.19850   0.45707   0.76097   1.000
    Ts180   Ts   0.21768   0.50305   0.75642   1.000
    Ts181   Ts   0.20868   0.51098   0.70707   1.000
    Ts182   Ts   0.16901   0.97170   0.21840   1.000
    Ts183   Ts   0.26592   0.96859   0.22155   1.000
    Ts184   Ts   0.14808   0.00634   0.25285   1.000
    Ts185   Ts   0.19843   0.95715   0.26078   1.000
    Ts186   Ts   0.21777   0.00319   0.25609   1.000
    Ts187   Ts   0.20874   0.01095   0.20688   1.000
    Ts188   Ts   0.16911   0.97145   0.71857   1.000
    Ts189   Ts   0.26600   0.96831   0.72178   1.000
    Ts190   Ts   0.14811   0.00599   0.75318   1.000
    Ts191   Ts   0.19850   0.95697   0.76111   1.000
    Ts192   Ts   0.21783   0.00289   0.75634   1.000
    Ts193   Ts   0.20879   0.01068   0.70706   1.000
    Ts194   Ts   0.66916   0.47155   0.21832   1.000
    Ts195   Ts   0.76614   0.46825   0.22156   1.000
    Ts196   Ts   0.64821   0.50621   0.25278   1.000
    Ts197   Ts   0.69869   0.45672   0.26065   1.000
    Ts198   Ts   0.71790   0.50285   0.25615   1.000
    Ts199   Ts   0.70892   0.51070   0.20687   1.000
    Ts200   Ts   0.76589   0.46851   0.72177   1.000
    Ts201   Ts   0.64796   0.50637   0.75310   1.000
    Ts202   Ts   0.69850   0.45707   0.76096   1.000
    Ts203   Ts   0.66893   0.47182   0.71847   1.000
    Ts204   Ts   0.71768   0.50305   0.75641   1.000
    Ts205   Ts   0.70868   0.51098   0.70706   1.000
    Ts206   Ts   0.76591   0.96859   0.22155   1.000
    Ts207   Ts   0.64807   0.00634   0.25285   1.000
    Ts208   Ts   0.69842   0.95715   0.26078   1.000
    Ts209   Ts   0.66900   0.97171   0.21840   1.000
    Ts210   Ts   0.71776   0.00319   0.25610   1.000
    Ts211   Ts   0.70872   0.01096   0.20689   1.000
    Ts212   Ts   0.76599   0.96832   0.72178   1.000
    Ts213   Ts   0.64810   0.00599   0.75318   1.000
    Ts214   Ts   0.69850   0.95697   0.76108   1.000
    Ts215   Ts   0.66911   0.97146   0.71857   1.000
    Ts216   Ts   0.71782   0.00289   0.75634   1.000
    Ts217   Ts   0.70878   0.01068   0.70707   1.000
    Ts218   Ts   0.09899   0.25294   0.99369   1.000
    Ts219   Ts   0.04081   0.26082   0.04287   1.000
    Ts220   Ts   0.01252   0.22160   0.03139   1.000
    Ts221   Ts   0.11259   0.21842   0.02826   1.000
    Ts222   Ts   0.02608   0.25616   0.99676   1.000
    Ts223   Ts   0.08437   0.20695   0.98906   1.000
loop_
    _geom_bond_atom_site_label_1
    _geom_bond_atom_site_label_2
    _geom_bond_distance
    _geom_bond_site_symmetry_2
    _ccdc_geom_bond_type
    Ca0    Ts32      0.84503      .   S
    Ca0    Ts33      0.77355      .   S
    Ca0    Ts34      0.77795      .   S
    Ca0    Ts35      0.77812      .   S
    Ca0    Ts36      0.84459      .   S
    Ca0    Ts37      0.77261      .   S
    Ca1    Ts38      0.84488  1_554   S
    Ca1    Ts39      0.77316      .   S
    Ca1    Ts40      0.77774      .   S
    Ca1    Ts41      0.77743      .   S
    Ca1    Ts42      0.84475  1_554   S
    Ca1    Ts43      0.77283  1_554   S
    Ca2    Ts44      0.84548      .   S
    Ca2    Ts45      0.77313      .   S
    Ca2    Ts46      0.77808      .   S
    Ca2    Ts47      0.77799      .   S
    Ca2    Ts48      0.84520      .   S
    Ca2    Ts49      0.77347      .   S
    Ca3    Ts50      0.84396  1_554   S
    Ca3    Ts51      0.77267      .   S
    Ca3    Ts52      0.77726      .   S
    Ca3    Ts53      0.77754      .   S
    Ca3    Ts54      0.84634  1_554   S
    Ca3    Ts55      0.77252  1_554   S
    Ca4    Ts56      0.84520      .   S
    Ca4    Ts57      0.77325      .   S
    Ca4    Ts58      0.77788      .   S
    Ca4    Ts59      0.77788      .   S
    Ca4    Ts60      0.84503      .   S
    Ca4    Ts61      0.77296      .   S
    Ca5    Ts62      0.84478  1_554   S
    Ca5    Ts63      0.77315      .   S
    Ca5    Ts64      0.77768      .   S
    Ca5    Ts65      0.77738      .   S
    Ca5    Ts66      0.84483  1_554   S
    Ca5    Ts67      0.77290  1_554   S
    Ca6    Ts68      0.84547      .   S
    Ca6    Ts69      0.77330      .   S
    Ca6    Ts70      0.77801      .   S
    Ca6    Ts71      0.77800      .   S
    Ca6    Ts72      0.84498      .   S
    Ca6    Ts73      0.77367      .   S
    Ca7    Ts74      0.77801      .   S
    Ca7    Ts75      0.84534      .   S
    Ca7    Ts76      0.77331      .   S
    Ca7    Ts77      0.84493      .   S
    Ca7    Ts78      0.77335      .   S
    Ca7    Ts79      0.77809      .   S
    Ca8    Ts80      0.77781      .   S
    Ca8    Ts81      0.84462  1_556   S
    Ca8    Ts82      0.77320      .   S
    Ca8    Ts83      0.84470  1_556   S
    Ca8    Ts84      0.77322  1_556   S
    Ca8    Ts85      0.77744      .   S
    Ca9    Ts86      0.77789      .   S
    Ca9    Ts87      0.84502      .   S
    Ca9    Ts88      0.77310      .   S
    Ca9    Ts89      0.84533      .   S
    Ca9    Ts90      0.77290      .   S
    Ca9    Ts91      0.77803      .   S
    Ca10   Ts92      0.77742      .   S
    Ca10   Ts93      0.84411  1_556   S
    Ca10   Ts94      0.77315      .   S
    Ca10   Ts95      0.84546  1_556   S
    Ca10   Ts96      0.77264  1_556   S
    Ca10   Ts97      0.77754      .   S
    Ca11   Ts98      0.77800      .   S
    Ca11   Ts99      0.84535      .   S
    Ca11   Ts100     0.77330      .   S
    Ca11   Ts101     0.84493      .   S
    Ca11   Ts102     0.77336      .   S
    Ca11   Ts103     0.77812      .   S
    Ca12   Ts104     0.77780      .   S
    Ca12   Ts105     0.84443  1_556   S
    Ca12   Ts106     0.77316      .   S
    Ca12   Ts107     0.84469  1_556   S
    Ca12   Ts108     0.77329  1_556   S
    Ca12   Ts109     0.77744      .   S
    Ca13   Ts110     0.77791      .   S
    Ca13   Ts111     0.84501      .   S
    Ca13   Ts112     0.77311      .   S
    Ca13   Ts113     0.84535      .   S
    Ca13   Ts114     0.77272      .   S
    Ca13   Ts115     0.77801      .   S
    Ca14   Ts116     0.77724      .   S
    Ca14   Ts117     0.84410  1_556   S
    Ca14   Ts118     0.77286      .   S
    Ca14   Ts119     0.84545  1_556   S
    Ca14   Ts120     0.77228  1_556   S
    Ca14   Ts121     0.77756      .   S
    Ca15   Ts122     0.77299      .   S
    Ca15   Ts123     0.84461  1_545   S
    Ca15   Ts124     0.77761      .   S
    Ca15   Ts125     0.84507  1_545   S
    Ca15   Ts126     0.77289  1_545   S
    Ca15   Ts127     0.77757      .   S
    Ca16   Ts128     0.77281      .   S
    Ca16   Ts129     0.84415  1_545   S
    Ca16   Ts130     0.77745      .   S
    Ca16   Ts131     0.84570  1_545   S
    Ca16   Ts132     0.77269  1_545   S
    Ca16   Ts133     0.77751      .   S
    Ca17   Ts134     0.77319      .   S
    Ca17   Ts135     0.84480      .   S
    Ca17   Ts136     0.84501      .   S
    Ca17   Ts137     0.77798      .   S
    Ca17   Ts138     0.77347      .   S
    Ca17   Ts139     0.77809      .   S
    Ca18   Ts140     0.84507      .   S
    Ca18   Ts141     0.77294      .   S
    Ca18   Ts142     0.77793      .   S
    Ca18   Ts143     0.84531      .   S
    Ca18   Ts144     0.77279      .   S
    Ca18   Ts145     0.77797      .   S
    Ca19   Ts146     0.84511  1_545   S
    Ca19   Ts147     0.84458  1_545   S
    Ca19   Ts148     0.77300      .   S
    Ca19   Ts149     0.77769      .   S
    Ca19   Ts150     0.77289  1_545   S
    Ca19   Ts151     0.77756      .   S
    Ca20   Ts152     0.84415  1_545   S
    Ca20   Ts153     0.84574  1_545   S
    Ca20   Ts154     0.77282      .   S
    Ca20   Ts155     0.77752      .   S
    Ca20   Ts156     0.77245  1_545   S
    Ca20   Ts157     0.77751      .   S
    Ca21   Ts158     0.84482      .   S
    Ca21   Ts159     0.84499      .   S
    Ca21   Ts160     0.77314      .   S
    Ca21   Ts161     0.77807      .   S
    Ca21   Ts162     0.77348      .   S
    Ca21   Ts163     0.77809      .   S
    Ca22   Ts164     0.84535      .   S
    Ca22   Ts165     0.84511      .   S
    Ca22   Ts166     0.77294      .   S
    Ca22   Ts167     0.77798      .   S
    Ca22   Ts168     0.77278      .   S
    Ca22   Ts169     0.77796      .   S
    Ca23   Ts170     0.77764      .   S
    Ca23   Ts171     0.77786      .   S
    Ca23   Ts172     0.84556      .   S
    Ca23   Ts173     0.77329      .   S
    Ca23   Ts174     0.84486      .   S
    Ca23   Ts175     0.77300      .   S
    Ca24   Ts176     0.77809      .   S
    Ca24   Ts177     0.77791      .   S
    Ca24   Ts178     0.84529      .   S
    Ca24   Ts179     0.77332      .   S
    Ca24   Ts180     0.84483      .   S
    Ca24   Ts181     0.77335      .   S
    Ca25   Ts182     0.77746      .   S
    Ca25   Ts183     0.77737      .   S
    Ca25   Ts184     0.84434  1_565   S
    Ca25   Ts185     0.77272      .   S
    Ca25   Ts186     0.84537  1_565   S
    Ca25   Ts187     0.77268  1_565   S
    Ca26   Ts188     0.77760      .   S
    Ca26   Ts189     0.77766      .   S
    Ca26   Ts190     0.84455  1_565   S
    Ca26   Ts191     0.77311      .   S
    Ca26   Ts192     0.84513  1_565   S
    Ca26   Ts193     0.77311  1_565   S
    Ca27   Ts194     0.77766      .   S
    Ca27   Ts195     0.77785      .   S
    Ca27   Ts196     0.84556      .   S
    Ca27   Ts197     0.77302      .   S
    Ca27   Ts198     0.84485      .   S
    Ca27   Ts199     0.77301      .   S
    Ca28   Ts200     0.77791      .   S
    Ca28   Ts201     0.84531      .   S
    Ca28   Ts202     0.77337      .   S
    Ca28   Ts203     0.77805      .   S
    Ca28   Ts204     0.84485      .   S
    Ca28   Ts205     0.77333      .   S
    Ca29   Ts206     0.77738      .   S
    Ca29   Ts207     0.84433  1_565   S
    Ca29   Ts208     0.77273      .   S
    Ca29   Ts209     0.77744      .   S
    Ca29   Ts210     0.84546  1_565   S
    Ca29   Ts211     0.77266  1_565   S
    Ca30   Ts212     0.77766      .   S
    Ca30   Ts213     0.84455  1_565   S
    Ca30   Ts214     0.77272      .   S
    Ca30   Ts215     0.77760      .   S
    Ca30   Ts216     0.84511  1_565   S
    Ca30   Ts217     0.77309  1_565   S
    Ca31   Ts218     0.84392  1_554   S
    Ca31   Ts219     0.77269      .   S
    Ca31   Ts220     0.77732      .   S
    Ca31   Ts221     0.77757      .   S
    Ca31   Ts222     0.84636  1_554   S
    Ca31   Ts223     0.77245  1_554   S
