# CIF file generated by openbabel 2.4.90, see http://openbabel.sf.net
data_I
_chemical_name_common ''
_cell_length_a 14.678
_cell_length_b 21.376
_cell_length_c 21.376
_cell_angle_alpha 83.236
_cell_angle_beta 69.927
_cell_angle_gamma 69.929
_space_group_name_H-M_alt 'P 1'
_space_group_name_Hall 'P 1'
loop_
    _symmetry_equiv_pos_as_xyz
    x,y,z
loop_
    _atom_site_label
    _atom_site_type_symbol
    _atom_site_fract_x
    _atom_site_fract_y
    _atom_site_fract_z
    _atom_site_occupancy
    N0      N    0.04877   0.88871   0.13865   1.000
    N1      N    0.54877   0.88871   0.13864   1.000
    N2      N    0.07602   0.61139   0.86163   1.000
    N3      N    0.04887   0.88849   0.63872   1.000
    N4      N    0.54909   0.38853   0.13852   1.000
    N5      N    0.54884   0.38860   0.63880   1.000
    N6      N    0.31220   0.63893   0.61148   1.000
    N7      N    0.31259   0.63856   0.11133   1.000
    N8      N    0.56232   0.86169   0.38861   1.000
    N9      N    0.06234   0.86169   0.38861   1.000
    N10     N    0.54887   0.88849   0.63873   1.000
    N11     N    0.07615   0.11111   0.86158   1.000
    N12     N    0.06268   0.36128   0.88833   1.000
    N13     N    0.56253   0.86145   0.88882   1.000
    N14     N    0.81219   0.63893   0.61147   1.000
    N15     N    0.04909   0.38854   0.13852   1.000
    N16     N    0.06253   0.86145   0.88882   1.000
    N17     N    0.81258   0.63856   0.11132   1.000
    N18     N    0.56268   0.36128   0.88841   1.000
    N19     N    0.57605   0.11151   0.36126   1.000
    N20     N    0.81269   0.13855   0.11115   1.000
    N21     N    0.04885   0.38860   0.63880   1.000
    N22     N    0.57602   0.61139   0.86162   1.000
    N23     N    0.56263   0.36117   0.38854   1.000
    N24     N    0.06263   0.36117   0.38858   1.000
    N25     N    0.31256   0.13842   0.61143   1.000
    N26     N    0.07623   0.61150   0.36110   1.000
    N27     N    0.57623   0.61149   0.36110   1.000
    N28     N    0.07605   0.11151   0.36126   1.000
    N29     N    0.81255   0.13842   0.61144   1.000
    N30     N    0.31271   0.13855   0.11113   1.000
    N31     N    0.57615   0.11111   0.86158   1.000
    Zr32    Zr   0.81248   0.76913   0.48082   1.000
    O33     O    0.89047   0.71856   0.44185   1.000
    O34     O    0.73455   0.80792   0.53153   1.000
    O35     O    0.89249   0.79701   0.45429   1.000
    O36     O    0.73238   0.79577   0.45305   1.000
    Zr37    Zr   0.56249   0.23090   0.51917   1.000
    O38     O    0.64381   0.20305   0.54571   1.000
    O39     O    0.48122   0.20428   0.54695   1.000
    O40     O    0.57402   0.19209   0.46846   1.000
    O41     O    0.55090   0.28150   0.55812   1.000
    Zr42    Zr   0.06242   0.73112   0.51888   1.000
    O43     O    0.98105   0.70460   0.54677   1.000
    O44     O    0.05083   0.78166   0.55786   1.000
    O45     O    0.14366   0.70334   0.54552   1.000
    O46     O    0.07406   0.69219   0.46824   1.000
    Zr47    Zr   0.31251   0.26890   0.48108   1.000
    O48     O    0.23456   0.30784   0.53171   1.000
    O49     O    0.39261   0.29669   0.45446   1.000
    O50     O    0.39040   0.21835   0.44211   1.000
    O51     O    0.23249   0.29545   0.45322   1.000
    Zr52    Zr   0.41846   0.01921   0.26888   1.000
    O53     O    0.39128   0.05799   0.21820   1.000
    O54     O    0.47195   0.04699   0.29546   1.000
    O55     O    0.45741   0.96867   0.30786   1.000
    O56     O    0.31058   0.04580   0.29668   1.000
    Zr57    Zr   0.06255   0.23096   0.01889   1.000
    O58     O    0.98133   0.20435   0.04664   1.000
    O59     O    0.05103   0.28155   0.05779   1.000
    O60     O    0.07414   0.19199   0.96838   1.000
    O61     O    0.14386   0.20316   0.04546   1.000
    Zr62    Zr   0.81252   0.26893   0.98088   1.000
    O63     O    0.89264   0.29672   0.95420   1.000
    O64     O    0.89044   0.21822   0.94211   1.000
    O65     O    0.73467   0.30784   0.03150   1.000
    O66     O    0.73248   0.29551   0.95306   1.000
    Zr67    Zr   0.70647   0.48111   0.73109   1.000
    O68     O    0.81435   0.45326   0.70452   1.000
    O69     O    0.73373   0.53176   0.69218   1.000
    O70     O    0.65298   0.45450   0.70329   1.000
    O71     O    0.66753   0.44214   0.78162   1.000
    Zr72    Zr   0.91834   0.51922   0.76907   1.000
    O73     O    0.81048   0.54573   0.79695   1.000
    O74     O    0.89090   0.55821   0.71852   1.000
    O75     O    0.97184   0.54697   0.79572   1.000
    O76     O    0.95753   0.46850   0.80782   1.000
    Zr77    Zr   0.81249   0.76908   0.98115   1.000
    O78     O    0.89258   0.79687   0.95455   1.000
    O79     O    0.89039   0.71846   0.94227   1.000
    O80     O    0.73454   0.80794   0.03174   1.000
    O81     O    0.73241   0.79570   0.95339   1.000
    Zr82    Zr   0.91846   0.01921   0.26888   1.000
    O83     O    0.81058   0.04580   0.29668   1.000
    O84     O    0.97195   0.04698   0.29546   1.000
    O85     O    0.95741   0.96866   0.30786   1.000
    O86     O    0.89127   0.05799   0.21820   1.000
    Zr87    Zr   0.20672   0.48084   0.23088   1.000
    O88     O    0.15323   0.45428   0.20308   1.000
    O89     O    0.16769   0.44188   0.28148   1.000
    O90     O    0.23402   0.53147   0.19199   1.000
    O91     O    0.31460   0.45304   0.20430   1.000
    Zr92    Zr   0.41835   0.51922   0.76907   1.000
    O93     O    0.47184   0.54697   0.79571   1.000
    O94     O    0.31049   0.54573   0.79696   1.000
    O95     O    0.39090   0.55821   0.71852   1.000
    O96     O    0.45753   0.46850   0.80784   1.000
    Zr97    Zr   0.20653   0.98111   0.23089   1.000
    O98     O    0.15302   0.95448   0.20315   1.000
    O99     O    0.31436   0.95331   0.20432   1.000
    O100    O    0.23390   0.03166   0.19195   1.000
    O101    O    0.16744   0.94227   0.28153   1.000
    Zr102   Zr   0.31249   0.76913   0.48082   1.000
    O103    O    0.23456   0.80792   0.53154   1.000
    O104    O    0.23239   0.79577   0.45305   1.000
    O105    O    0.39249   0.79701   0.45430   1.000
    O106    O    0.39048   0.71855   0.44185   1.000
    Zr107   Zr   0.70672   0.48084   0.23088   1.000
    O108    O    0.66768   0.44188   0.28146   1.000
    O109    O    0.65322   0.45428   0.20308   1.000
    O110    O    0.73401   0.53147   0.19199   1.000
    O111    O    0.81459   0.45304   0.20430   1.000
    Zr112   Zr   0.20647   0.48111   0.73110   1.000
    O113    O    0.23373   0.53177   0.69218   1.000
    O114    O    0.16753   0.44214   0.78161   1.000
    O115    O    0.31435   0.45326   0.70453   1.000
    O116    O    0.15299   0.45450   0.70329   1.000
    Zr117   Zr   0.56254   0.23096   0.01890   1.000
    O118    O    0.48132   0.20435   0.04665   1.000
    O119    O    0.55103   0.28155   0.05780   1.000
    O120    O    0.64385   0.20316   0.04548   1.000
    O121    O    0.57413   0.19199   0.96838   1.000
    Zr122   Zr   0.70658   0.98085   0.73112   1.000
    O123    O    0.81443   0.95306   0.70452   1.000
    O124    O    0.66754   0.94204   0.78178   1.000
    O125    O    0.65310   0.95424   0.70331   1.000
    O126    O    0.73390   0.03143   0.69218   1.000
    Zr127   Zr   0.41851   0.01887   0.76912   1.000
    O128    O    0.47200   0.04661   0.79576   1.000
    O129    O    0.45757   0.96829   0.80801   1.000
    O130    O    0.39119   0.05775   0.71850   1.000
    O131    O    0.31065   0.04544   0.79694   1.000
    Zr132   Zr   0.91859   0.51891   0.26892   1.000
    O133    O    0.95762   0.46828   0.30786   1.000
    O134    O    0.97208   0.54682   0.29542   1.000
    O135    O    0.81071   0.54555   0.29669   1.000
    O136    O    0.89128   0.55782   0.21831   1.000
    Zr137   Zr   0.06240   0.73109   0.01916   1.000
    O138    O    0.98117   0.70445   0.04690   1.000
    O139    O    0.05078   0.78174   0.05799   1.000
    O140    O    0.07399   0.69214   0.96860   1.000
    O141    O    0.14372   0.70324   0.04570   1.000
    Zr142   Zr   0.70652   0.98111   0.23089   1.000
    O143    O    0.81435   0.95331   0.20433   1.000
    O144    O    0.65301   0.95448   0.20314   1.000
    O145    O    0.66743   0.94227   0.28153   1.000
    O146    O    0.73389   0.03166   0.19195   1.000
    Zr147   Zr   0.41860   0.51891   0.26893   1.000
    O148    O    0.31072   0.54555   0.29669   1.000
    O149    O    0.45762   0.46828   0.30785   1.000
    O150    O    0.39129   0.55782   0.21832   1.000
    O151    O    0.47208   0.54681   0.29543   1.000
    Zr152   Zr   0.81251   0.26890   0.48108   1.000
    O153    O    0.89260   0.29669   0.45447   1.000
    O154    O    0.89039   0.21835   0.44211   1.000
    O155    O    0.73455   0.30784   0.53171   1.000
    O156    O    0.73249   0.29545   0.45321   1.000
    Zr157   Zr   0.31253   0.26893   0.98088   1.000
    O158    O    0.39044   0.21822   0.94211   1.000
    O159    O    0.23248   0.29552   0.95304   1.000
    O160    O    0.23467   0.30784   0.03149   1.000
    O161    O    0.39264   0.29672   0.95422   1.000
    Zr162   Zr   0.56240   0.73109   0.01916   1.000
    O163    O    0.64372   0.70324   0.04570   1.000
    O164    O    0.48117   0.70445   0.04690   1.000
    O165    O    0.55077   0.78174   0.05799   1.000
    O166    O    0.57399   0.69214   0.96860   1.000
    Zr167   Zr   0.20659   0.98084   0.73112   1.000
    O168    O    0.16754   0.94204   0.78179   1.000
    O169    O    0.15311   0.95423   0.70331   1.000
    O170    O    0.31444   0.95306   0.70452   1.000
    O171    O    0.23391   0.03142   0.69218   1.000
    Zr172   Zr   0.06250   0.23090   0.51910   1.000
    O173    O    0.98123   0.20428   0.54691   1.000
    O174    O    0.14382   0.20305   0.54566   1.000
    O175    O    0.07403   0.19210   0.46842   1.000
    O176    O    0.05091   0.28150   0.55808   1.000
    Zr177   Zr   0.56241   0.73112   0.51888   1.000
    O178    O    0.64366   0.70334   0.54552   1.000
    O179    O    0.57406   0.69219   0.46824   1.000
    O180    O    0.55083   0.78166   0.55786   1.000
    O181    O    0.48105   0.70460   0.54677   1.000
    Zr182   Zr   0.91851   0.01886   0.76912   1.000
    O183    O    0.95757   0.96829   0.80801   1.000
    O184    O    0.81064   0.04544   0.79694   1.000
    O185    O    0.97200   0.04660   0.79576   1.000
    O186    O    0.89118   0.05775   0.71850   1.000
    Zr187   Zr   0.31250   0.76908   0.98115   1.000
    O188    O    0.23242   0.79570   0.95339   1.000
    O189    O    0.39040   0.71846   0.94226   1.000
    O190    O    0.39259   0.79687   0.95455   1.000
    O191    O    0.23455   0.80794   0.03175   1.000
    O192    O    0.06254   0.27232   0.47761   1.000
    O193    O    0.16512   0.02226   0.77260   1.000
    O194    O    0.66512   0.02226   0.77260   1.000
    O195    O    0.45984   0.47770   0.72764   1.000
    O196    O    0.46009   0.47746   0.22747   1.000
    O197    O    0.66499   0.52253   0.77260   1.000
    O198    O    0.45990   0.97771   0.22748   1.000
    O199    O    0.16506   0.02258   0.27233   1.000
    O200    O    0.95989   0.97771   0.22748   1.000
    O201    O    0.81257   0.22748   0.02230   1.000
    O202    O    0.56253   0.27232   0.47764   1.000
    O203    O    0.16499   0.52253   0.77261   1.000
    O204    O    0.66505   0.02258   0.27233   1.000
    O205    O    0.95997   0.97741   0.72767   1.000
    O206    O    0.31251   0.72759   0.02255   1.000
    O207    O    0.81250   0.72759   0.02254   1.000
    O208    O    0.95984   0.47770   0.72764   1.000
    O209    O    0.45997   0.97741   0.72767   1.000
    O210    O    0.56257   0.27239   0.97740   1.000
    O211    O    0.81239   0.72773   0.52236   1.000
    O212    O    0.96008   0.47746   0.22746   1.000
    O213    O    0.31258   0.22748   0.02230   1.000
    O214    O    0.06244   0.77254   0.97773   1.000
    O215    O    0.31254   0.22741   0.52252   1.000
    O216    O    0.56239   0.77264   0.47746   1.000
    O217    O    0.16523   0.52239   0.27228   1.000
    O218    O    0.56244   0.77254   0.97773   1.000
    O219    O    0.31240   0.72773   0.52236   1.000
    O220    O    0.66522   0.52239   0.27228   1.000
    O221    O    0.06258   0.27239   0.97738   1.000
    O222    O    0.06240   0.77264   0.47745   1.000
    O223    O    0.81253   0.22741   0.52252   1.000
loop_
    _geom_bond_atom_site_label_1
    _geom_bond_atom_site_label_2
    _geom_bond_distance
    _geom_bond_site_symmetry_2
    _ccdc_geom_bond_type
    Zr32   O33       1.37162      .   S
    N26    O33       3.01130  1_455   S
    Zr32   O34       1.37133      .   S
    N10    O34       3.01093      .   S
    Zr32   O35       1.41405      .   S
    N9     O35       3.09892  1_455   S
    Zr32   O36       1.41392      .   S
    N8     O36       3.09864      .   S
    Zr37   O38       1.41374      .   S
    N29    O38       3.09831      .   S
    Zr37   O39       1.41403      .   S
    N25    O39       3.09895      .   S
    Zr37   O40       1.37155      .   S
    N19    O40       3.01121      .   S
    Zr37   O41       1.37138      .   S
    N5     O41       3.01057      .   S
    Zr42   O43       1.41411  1_455   S
    N14    O43       3.09904      .   S
    Zr42   O44       1.37064      .   S
    N3     O44       3.00902      .   S
    Zr42   O45       1.41396      .   S
    N6     O45       3.09879      .   S
    Zr42   O46       1.37150      .   S
    N26    O46       3.01071      .   S
    Zr47   O48       1.37178      .   S
    N21    O48       3.01147      .   S
    Zr47   O49       1.41398      .   S
    N23    O49       3.09875      .   S
    Zr47   O50       1.37066      .   S
    N19    O50       3.00892      .   S
    Zr47   O51       1.41403      .   S
    N24    O51       3.09886      .   S
    Zr52   O53       1.37054      .   S
    N30    O53       3.00891      .   S
    Zr52   O54       1.41327      .   S
    N19    O54       3.09742      .   S
    Zr52   O55       1.37083  1_545   S
    N8     O55       3.00964      .   S
    Zr52   O56       1.41404      .   S
    N28    O56       3.09920      .   S
    Zr57   O58       1.41330  1_455   S
    N20    O58       3.09769      .   S
    Zr57   O59       1.37091      .   S
    N15    O59       3.00992      .   S
    Zr57   O60       1.37016  1_554   S
    N11    O60       3.00835      .   S
    Zr57   O61       1.41385      .   S
    N30    O61       3.09871      .   S
    Zr62   O63       1.41436      .   S
    N12    O63       3.10016  1_455   S
    Zr62   O64       1.37103      .   S
    N11    O64       3.00995  1_455   S
    Zr62   O65       1.37083  1_556   S
    N4     O65       3.00937      .   S
    Zr62   O66       1.41369      .   S
    N18    O66       3.09831      .   S
    Zr67   O68       1.41408      .   S
    N21    O68       3.09907  1_455   S
    Zr67   O69       1.37160      .   S
    N14    O69       3.01100      .   S
    Zr67   O70       1.41397      .   S
    N5     O70       3.09878      .   S
    Zr67   O71       1.37053      .   S
    N18    O71       3.00853      .   S
    Zr72   O73       1.41383      .   S
    N22    O73       3.09844      .   S
    Zr72   O74       1.37134      .   S
    N14    O74       3.01068      .   S
    Zr72   O75       1.41392      .   S
    N2     O75       3.09857  1_455   S
    Zr72   O76       1.37123      .   S
    N12    O76       3.01037  1_455   S
    Zr77   O78       1.41388      .   S
    N16    O78       3.09884  1_455   S
    Zr77   O79       1.37086      .   S
    N2     O79       3.00976  1_455   S
    Zr77   O80       1.37063  1_556   S
    N1     O80       3.00972      .   S
    Zr77   O81       1.41344      .   S
    N13    O81       3.09807      .   S
    Zr82   O83       1.41403      .   S
    N19    O83       3.09918      .   S
    Zr82   O84       1.41333      .   S
    N28    O84       3.09748  1_455   S
    Zr82   O85       1.37085  1_545   S
    N9     O85       3.00970  1_455   S
    Zr82   O86       1.37049      .   S
    N20    O86       3.00876      .   S
    Zr87   O88       1.41338      .   S
    N15    O88       3.09762      .   S
    Zr87   O89       1.37169      .   S
    N24    O89       3.01130      .   S
    Zr87   O90       1.37110      .   S
    N7     O90       3.01011      .   S
    Zr87   O91       1.41393      .   S
    N4     O91       3.09871      .   S
    Zr92   O93       1.41384      .   S
    N22    O93       3.09841      .   S
    Zr92   O94       1.41385      .   S
    N2     O94       3.09850      .   S
    Zr92   O95       1.37133      .   S
    N6     O95       3.01063      .   S
    Zr92   O96       1.37152      .   S
    N18    O96       3.01118      .   S
    Zr97   O98       1.41370      .   S
    N0     O98       3.09844      .   S
    Zr97   O99       1.41336      .   S
    N1     O99       3.09776      .   S
    Zr97   O100      1.37061  1_565   S
    N30    O100      3.00926      .   S
    Zr97   O101      1.37075      .   S
    N9     O101      3.00955      .   S
    Zr102  O103      1.37138      .   S
    N3     O103      3.01087      .   S
    Zr102  O104      1.41391      .   S
    N9     O104      3.09867      .   S
    Zr102  O105      1.41401      .   S
    N8     O105      3.09884      .   S
    Zr102  O106      1.37160      .   S
    N27    O106      3.01125      .   S
    Zr107  O108      1.37148      .   S
    N23    O108      3.01105      .   S
    Zr107  O109      1.41336      .   S
    N4     O109      3.09754      .   S
    Zr107  O110      1.37111      .   S
    N17    O110      3.01013      .   S
    Zr107  O111      1.41395      .   S
    N15    O111      3.09879  1_455   S
    Zr112  O113      1.37161      .   S
    N6     O113      3.01100      .   S
    Zr112  O114      1.37026      .   S
    N12    O114      3.00786      .   S
    Zr112  O115      1.41404      .   S
    N5     O115      3.09896      .   S
    Zr112  O116      1.41404      .   S
    N21    O116      3.09890      .   S
    Zr117  O118      1.41323      .   S
    N30    O118      3.09753      .   S
    Zr117  O119      1.37088      .   S
    N4     O119      3.00989      .   S
    Zr117  O120      1.41386      .   S
    N20    O120      3.09877      .   S
    Zr117  O121      1.37022  1_554   S
    N31    O121      3.00842      .   S
    Zr122  O123      1.41364      .   S
    N3     O123      3.09828  1_455   S
    Zr122  O124      1.37033      .   S
    N13    O124      3.00870      .   S
    Zr122  O125      1.41404      .   S
    N10    O125      3.09916      .   S
    Zr122  O126      1.37084  1_565   S
    N29    O126      3.00949      .   S
    Zr127  O128      1.41350      .   S
    N31    O128      3.09805      .   S
    Zr127  O129      1.37062  1_545   S
    N13    O129      3.00924      .   S
    Zr127  O130      1.37107      .   S
    N25    O130      3.01023      .   S
    Zr127  O131      1.41388      .   S
    N11    O131      3.09882      .   S
    Zr132  O133      1.37174      .   S
    N24    O133      3.01133  1_455   S
    Zr132  O134      1.41391      .   S
    N26    O134      3.09858  1_455   S
    Zr132  O135      1.41405      .   S
    N27    O135      3.09888      .   S
    Zr132  O136      1.37099      .   S
    N17    O136      3.00976      .   S
    Zr137  O138      1.41373  1_455   S
    N17    O138      3.09840      .   S
    Zr137  O139      1.37036      .   S
    N0     O139      3.00832      .   S
    Zr137  O140      1.37068  1_554   S
    N2     O140      3.00932      .   S
    Zr137  O141      1.41370      .   S
    N7     O141      3.09852      .   S
    Zr142  O143      1.41340      .   S
    N0     O143      3.09786  1_455   S
    Zr142  O144      1.41370      .   S
    N1     O144      3.09848      .   S
    Zr142  O145      1.37075      .   S
    N8     O145      3.00953      .   S
    Zr142  O146      1.37059  1_565   S
    N20    O146      3.00923      .   S
    Zr147  O148      1.41404      .   S
    N26    O148      3.09889      .   S
    Zr147  O149      1.37158      .   S
    N23    O149      3.01082      .   S
    Zr147  O150      1.37102      .   S
    N7     O150      3.00978      .   S
    Zr147  O151      1.41380      .   S
    N27    O151      3.09839      .   S
    Zr152  O153      1.41399      .   S
    N24    O153      3.09878  1_455   S
    Zr152  O154      1.37068      .   S
    N28    O154      3.00898  1_455   S
    Zr152  O155      1.37180      .   S
    N5     O155      3.01149      .   S
    Zr152  O156      1.41413      .   S
    N23    O156      3.09920      .   S
    Zr157  O158      1.37104      .   S
    N31    O158      3.00990      .   S
    Zr157  O159      1.41399      .   S
    N12    O159      3.09920      .   S
    Zr157  O160      1.37080  1_556   S
    N15    O160      3.00937      .   S
    Zr157  O161      1.41430      .   S
    N18    O161      3.09990      .   S
    Zr162  O163      1.41365      .   S
    N17    O163      3.09844      .   S
    Zr162  O164      1.41367      .   S
    N7     O164      3.09831      .   S
    Zr162  O165      1.37031      .   S
    N1     O165      3.00822      .   S
    Zr162  O166      1.37076  1_554   S
    N22    O166      3.00947      .   S
    Zr167  O168      1.37045      .   S
    N16    O168      3.00860      .   S
    Zr167  O169      1.41406      .   S
    N3     O169      3.09922      .   S
    Zr167  O170      1.41360      .   S
    N10    O170      3.09816      .   S
    Zr167  O171      1.37087  1_565   S
    N25    O171      3.00953      .   S
    Zr172  O173      1.41415  1_455   S
    N29    O173      3.09919      .   S
    Zr172  O174      1.41407      .   S
    N25    O174      3.09888      .   S
    Zr172  O175      1.37113      .   S
    N28    O175      3.01049      .   S
    Zr172  O176      1.37173      .   S
    N21    O176      3.01113      .   S
    Zr177  O178      1.41397      .   S
    N14    O178      3.09879      .   S
    Zr177  O179      1.37160      .   S
    N27    O179      3.01067      .   S
    Zr177  O180      1.37073      .   S
    N10    O180      3.00901      .   S
    Zr177  O181      1.41405      .   S
    N6     O181      3.09896      .   S
    Zr182  O183      1.37053  1_545   S
    N16    O183      3.00938  1_455   S
    Zr182  O184      1.41387      .   S
    N31    O184      3.09881      .   S
    Zr182  O185      1.41357      .   S
    N11    O185      3.09816  1_455   S
    Zr182  O186      1.37106      .   S
    N29    O186      3.01018      .   S
    Zr187  O188      1.41353      .   S
    N16    O188      3.09804      .   S
    Zr187  O189      1.37095      .   S
    N22    O189      3.00970      .   S
    Zr187  O190      1.41386      .   S
    N13    O190      3.09874      .   S
    Zr187  O191      1.37078  1_556   S
    N0     O191      3.00973      .   S
    Zr172  O192      1.17711      .   S
    N24    O192      2.52533      .   S
    Zr167  O193      1.17687  1_565   S
    N11    O193      2.52467      .   S
    Zr122  O194      1.17685  1_565   S
    N31    O194      2.52465      .   S
    Zr92   O195      1.17762      .   S
    N5     O195      2.52616      .   S
    Zr147  O196      1.17715      .   S
    N4     O196      2.52524      .   S
    Zr67   O197      1.17730      .   S
    N22    O197      2.52543      .   S
    Zr52   O198      1.17694  1_545   S
    N1     O198      2.52482      .   S
    Zr97   O199      1.17706  1_565   S
    N28    O199      2.52513      .   S
    Zr82   O200      1.17689  1_545   S
    N0     O200      2.52470  1_455   S
    Zr62   O201      1.17642  1_556   S
    N20    O201      2.52392      .   S
    N23    O202      2.52632      .   S
    Zr37   O202      1.17764      .   S
    Zr112  O203      1.17729      .   S
    N2     O203      2.52545      .   S
    Zr142  O204      1.17708  1_565   S
    N19    O204      2.52514      .   S
    Zr182  O205      1.17707  1_545   S
    N3     O205      2.52511  1_455   S
    Zr187  O206      1.17673  1_556   S
    N7     O206      2.52445      .   S
    Zr77   O207      1.17671  1_556   S
    N17    O207      2.52442      .   S
    Zr72   O208      1.17764      .   S
    N21    O208      2.52619  1_455   S
    N10    O209      2.52509      .   S
    Zr127  O209      1.17706  1_545   S
    Zr117  O210      1.17730  1_554   S
    N18    O210      2.52549      .   S
    N14    O211      2.52595      .   S
    Zr32   O211      1.17751      .   S
    Zr132  O212      1.17711      .   S
    N15    O212      2.52517  1_455   S
    Zr157  O213      1.17642  1_556   S
    N30    O213      2.52378      .   S
    Zr137  O214      1.17675  1_554   S
    N16    O214      2.52441      .   S
    N25    O215      2.52563      .   S
    Zr47   O215      1.17738      .   S
    Zr177  O216      1.17746      .   S
    N8     O216      2.52571      .   S
    Zr87   O217      1.17761      .   S
    N26    O217      2.52613      .   S
    Zr162  O218      1.17675  1_554   S
    N13    O218      2.52443      .   S
    Zr102  O219      1.17751      .   S
    N6     O219      2.52596      .   S
    Zr107  O220      1.17760      .   S
    N27    O220      2.52610      .   S
    Zr57   O221      1.17753  1_554   S
    N12    O221      2.52623      .   S
    Zr42   O222      1.17749      .   S
    N9     O222      2.52569      .   S
    Zr152  O223      1.17740      .   S
    N29    O223      2.52567      .   S
