# CIF file generated by openbabel 2.4.90, see http://openbabel.sf.net
data_I
_chemical_name_common ''
_cell_length_a 14.678
_cell_length_b 21.376
_cell_length_c 21.376
_cell_angle_alpha 83.236
_cell_angle_beta 69.927
_cell_angle_gamma 69.929
_space_group_name_H-M_alt 'P 1'
_space_group_name_Hall 'P 1'
loop_
    _symmetry_equiv_pos_as_xyz
    x,y,z
loop_
    _atom_site_label
    _atom_site_type_symbol
    _atom_site_fract_x
    _atom_site_fract_y
    _atom_site_fract_z
    _atom_site_occupancy
    N0      N    0.04877   0.88871   0.13865   1.000
    N1      N    0.54877   0.88871   0.13864   1.000
    N2      N    0.07602   0.61139   0.86163   1.000
    N3      N    0.04887   0.88849   0.63872   1.000
    N4      N    0.54909   0.38853   0.13852   1.000
    N5      N    0.54884   0.38860   0.63880   1.000
    N6      N    0.31220   0.63893   0.61148   1.000
    N7      N    0.31259   0.63856   0.11133   1.000
    N8      N    0.56232   0.86169   0.38861   1.000
    N9      N    0.06234   0.86169   0.38861   1.000
    N10     N    0.54887   0.88849   0.63873   1.000
    N11     N    0.07615   0.11111   0.86158   1.000
    N12     N    0.06268   0.36128   0.88833   1.000
    N13     N    0.56253   0.86145   0.88882   1.000
    N14     N    0.81219   0.63893   0.61147   1.000
    N15     N    0.04909   0.38854   0.13852   1.000
    N16     N    0.06253   0.86145   0.88882   1.000
    N17     N    0.81258   0.63856   0.11132   1.000
    N18     N    0.56268   0.36128   0.88841   1.000
    N19     N    0.57605   0.11151   0.36126   1.000
    N20     N    0.81269   0.13855   0.11115   1.000
    N21     N    0.04885   0.38860   0.63880   1.000
    N22     N    0.57602   0.61139   0.86162   1.000
    N23     N    0.56263   0.36117   0.38854   1.000
    N24     N    0.06263   0.36117   0.38858   1.000
    N25     N    0.31256   0.13842   0.61143   1.000
    N26     N    0.07623   0.61150   0.36110   1.000
    N27     N    0.57623   0.61149   0.36110   1.000
    N28     N    0.07605   0.11151   0.36126   1.000
    N29     N    0.81255   0.13842   0.61144   1.000
    N30     N    0.31271   0.13855   0.11113   1.000
    N31     N    0.57615   0.11111   0.86158   1.000
    Zr32    Zr   0.81248   0.76913   0.48082   1.000
    O33     O    0.89047   0.71856   0.44185   1.000
    O34     O    0.82484   0.72836   0.52298   1.000
    O35     O    0.73455   0.80792   0.53153   1.000
    O36     O    0.89249   0.79701   0.45429   1.000
    O37     O    0.73238   0.79577   0.45305   1.000
    O38     O    0.79995   0.72710   0.52173   1.000
    Zr39    Zr   0.56249   0.23090   0.51917   1.000
    O40     O    0.64381   0.20305   0.54571   1.000
    O41     O    0.57622   0.27170   0.47701   1.000
    O42     O    0.48122   0.20428   0.54695   1.000
    O43     O    0.57402   0.19209   0.46846   1.000
    O44     O    0.55090   0.28150   0.55812   1.000
    O45     O    0.54884   0.27295   0.47827   1.000
    Zr46    Zr   0.06242   0.73112   0.51888   1.000
    O47     O    0.98105   0.70460   0.54677   1.000
    O48     O    0.05083   0.78166   0.55786   1.000
    O49     O    0.14366   0.70334   0.54552   1.000
    O50     O    0.04870   0.77326   0.47808   1.000
    O51     O    0.07609   0.77202   0.47683   1.000
    O52     O    0.07406   0.69219   0.46824   1.000
    Zr53    Zr   0.31251   0.26890   0.48108   1.000
    O54     O    0.23456   0.30784   0.53171   1.000
    O55     O    0.39261   0.29669   0.45446   1.000
    O56     O    0.30008   0.22679   0.52190   1.000
    O57     O    0.39040   0.21835   0.44211   1.000
    O58     O    0.23249   0.29545   0.45322   1.000
    O59     O    0.32499   0.22802   0.52314   1.000
    Zr60    Zr   0.41846   0.01921   0.26888   1.000
    O61     O    0.39128   0.05799   0.21820   1.000
    O62     O    0.47298   0.97830   0.22689   1.000
    O63     O    0.44682   0.97713   0.22807   1.000
    O64     O    0.47195   0.04699   0.29546   1.000
    O65     O    0.45741   0.96867   0.30786   1.000
    O66     O    0.31058   0.04580   0.29668   1.000
    Zr67    Zr   0.06255   0.23096   0.01889   1.000
    O68     O    0.98133   0.20435   0.04664   1.000
    O69     O    0.04891   0.27299   0.97795   1.000
    O70     O    0.05103   0.28155   0.05779   1.000
    O71     O    0.07414   0.19199   0.96838   1.000
    O72     O    0.07625   0.27179   0.97680   1.000
    O73     O    0.14386   0.20316   0.04546   1.000
    Zr74    Zr   0.81252   0.26893   0.98088   1.000
    O75     O    0.82506   0.22808   0.02289   1.000
    O76     O    0.89264   0.29672   0.95420   1.000
    O77     O    0.89044   0.21822   0.94211   1.000
    O78     O    0.80008   0.22689   0.02171   1.000
    O79     O    0.73467   0.30784   0.03150   1.000
    O80     O    0.73248   0.29551   0.95306   1.000
    Zr81    Zr   0.70647   0.48111   0.73109   1.000
    O82     O    0.67806   0.52191   0.77322   1.000
    O83     O    0.81435   0.45326   0.70452   1.000
    O84     O    0.73373   0.53176   0.69218   1.000
    O85     O    0.65298   0.45450   0.70329   1.000
    O86     O    0.66753   0.44214   0.78162   1.000
    O87     O    0.65192   0.52315   0.77197   1.000
    Zr88    Zr   0.91834   0.51922   0.76907   1.000
    O89     O    0.81048   0.54573   0.79695   1.000
    O90     O    0.89090   0.55821   0.71852   1.000
    O91     O    0.97184   0.54697   0.79572   1.000
    O92     O    0.95753   0.46850   0.80782   1.000
    O93     O    0.97291   0.47832   0.72702   1.000
    O94     O    0.94677   0.47708   0.72826   1.000
    Zr95    Zr   0.81249   0.76908   0.98115   1.000
    O96     O    0.80003   0.72698   0.02194   1.000
    O97     O    0.89258   0.79687   0.95455   1.000
    O98     O    0.82497   0.72820   0.02314   1.000
    O99     O    0.89039   0.71846   0.94227   1.000
    O100    O    0.73454   0.80794   0.03174   1.000
    O101    O    0.73241   0.79570   0.95339   1.000
    Zr102   Zr   0.91846   0.01921   0.26888   1.000
    O103    O    0.81058   0.04580   0.29668   1.000
    O104    O    0.97195   0.04698   0.29546   1.000
    O105    O    0.97298   0.97829   0.22689   1.000
    O106    O    0.94681   0.97713   0.22807   1.000
    O107    O    0.95741   0.96866   0.30786   1.000
    O108    O    0.89127   0.05799   0.21820   1.000
    Zr109   Zr   0.20672   0.48084   0.23088   1.000
    O110    O    0.15216   0.52302   0.27165   1.000
    O111    O    0.15323   0.45428   0.20308   1.000
    O112    O    0.16769   0.44188   0.28148   1.000
    O113    O    0.23402   0.53147   0.19199   1.000
    O114    O    0.31460   0.45304   0.20430   1.000
    O115    O    0.17830   0.52176   0.27291   1.000
    Zr116   Zr   0.41835   0.51922   0.76907   1.000
    O117    O    0.47184   0.54697   0.79571   1.000
    O118    O    0.44677   0.47708   0.72826   1.000
    O119    O    0.31049   0.54573   0.79696   1.000
    O120    O    0.47291   0.47832   0.72702   1.000
    O121    O    0.39090   0.55821   0.71852   1.000
    O122    O    0.45753   0.46850   0.80784   1.000
    Zr123   Zr   0.20653   0.98111   0.23089   1.000
    O124    O    0.17812   0.02199   0.27293   1.000
    O125    O    0.15302   0.95448   0.20315   1.000
    O126    O    0.31436   0.95331   0.20432   1.000
    O127    O    0.23390   0.03166   0.19195   1.000
    O128    O    0.16744   0.94227   0.28153   1.000
    O129    O    0.15199   0.02317   0.27172   1.000
    Zr130   Zr   0.31249   0.76913   0.48082   1.000
    O131    O    0.23456   0.80792   0.53154   1.000
    O132    O    0.23239   0.79577   0.45305   1.000
    O133    O    0.39249   0.79701   0.45430   1.000
    O134    O    0.39048   0.71855   0.44185   1.000
    O135    O    0.29996   0.72710   0.52173   1.000
    O136    O    0.32485   0.72836   0.52298   1.000
    Zr137   Zr   0.70672   0.48084   0.23088   1.000
    O138    O    0.66768   0.44188   0.28146   1.000
    O139    O    0.67829   0.52175   0.27291   1.000
    O140    O    0.65215   0.52302   0.27165   1.000
    O141    O    0.65322   0.45428   0.20308   1.000
    O142    O    0.73401   0.53147   0.19199   1.000
    O143    O    0.81459   0.45304   0.20430   1.000
    Zr144   Zr   0.20647   0.48111   0.73110   1.000
    O145    O    0.23373   0.53177   0.69218   1.000
    O146    O    0.17806   0.52191   0.77323   1.000
    O147    O    0.15192   0.52315   0.77198   1.000
    O148    O    0.16753   0.44214   0.78161   1.000
    O149    O    0.31435   0.45326   0.70453   1.000
    O150    O    0.15299   0.45450   0.70329   1.000
    Zr151   Zr   0.56254   0.23096   0.01890   1.000
    O152    O    0.57624   0.27178   0.97682   1.000
    O153    O    0.54890   0.27299   0.97798   1.000
    O154    O    0.48132   0.20435   0.04665   1.000
    O155    O    0.55103   0.28155   0.05780   1.000
    O156    O    0.64385   0.20316   0.04548   1.000
    O157    O    0.57413   0.19199   0.96838   1.000
    Zr158   Zr   0.70658   0.98085   0.73112   1.000
    O159    O    0.81443   0.95306   0.70452   1.000
    O160    O    0.67819   0.02168   0.77319   1.000
    O161    O    0.66754   0.94204   0.78178   1.000
    O162    O    0.65205   0.02284   0.77201   1.000
    O163    O    0.65310   0.95424   0.70331   1.000
    O164    O    0.73390   0.03143   0.69218   1.000
    Zr165   Zr   0.41851   0.01887   0.76912   1.000
    O166    O    0.47200   0.04661   0.79576   1.000
    O167    O    0.45757   0.96829   0.80801   1.000
    O168    O    0.39119   0.05775   0.71850   1.000
    O169    O    0.44689   0.97682   0.72827   1.000
    O170    O    0.47306   0.97800   0.72706   1.000
    O171    O    0.31065   0.04544   0.79694   1.000
    Zr172   Zr   0.91859   0.51891   0.26892   1.000
    O173    O    0.95762   0.46828   0.30786   1.000
    O174    O    0.97208   0.54682   0.29542   1.000
    O175    O    0.97315   0.47808   0.22685   1.000
    O176    O    0.94702   0.47684   0.22807   1.000
    O177    O    0.81071   0.54555   0.29669   1.000
    O178    O    0.89128   0.55782   0.21831   1.000
    Zr179   Zr   0.06240   0.73109   0.01916   1.000
    O180    O    0.98117   0.70445   0.04690   1.000
    O181    O    0.05078   0.78174   0.05799   1.000
    O182    O    0.07399   0.69214   0.96860   1.000
    O183    O    0.07610   0.77195   0.97714   1.000
    O184    O    0.14372   0.70324   0.04570   1.000
    O185    O    0.04878   0.77313   0.97831   1.000
    Zr186   Zr   0.70652   0.98111   0.23089   1.000
    O187    O    0.67811   0.02199   0.27294   1.000
    O188    O    0.81435   0.95331   0.20433   1.000
    O189    O    0.65301   0.95448   0.20314   1.000
    O190    O    0.65198   0.02317   0.27172   1.000
    O191    O    0.66743   0.94227   0.28153   1.000
    O192    O    0.73389   0.03166   0.19195   1.000
    Zr193   Zr   0.41860   0.51891   0.26893   1.000
    O194    O    0.31072   0.54555   0.29669   1.000
    O195    O    0.45762   0.46828   0.30785   1.000
    O196    O    0.44702   0.47684   0.22808   1.000
    O197    O    0.39129   0.55782   0.21832   1.000
    O198    O    0.47315   0.47808   0.22686   1.000
    O199    O    0.47208   0.54681   0.29543   1.000
    Zr200   Zr   0.81251   0.26890   0.48108   1.000
    O201    O    0.89260   0.29669   0.45447   1.000
    O202    O    0.89039   0.21835   0.44211   1.000
    O203    O    0.73455   0.30784   0.53171   1.000
    O204    O    0.80007   0.22680   0.52190   1.000
    O205    O    0.82498   0.22803   0.52314   1.000
    O206    O    0.73249   0.29545   0.45321   1.000
    Zr207   Zr   0.31253   0.26893   0.98088   1.000
    O208    O    0.39044   0.21822   0.94211   1.000
    O209    O    0.32506   0.22808   0.02289   1.000
    O210    O    0.30009   0.22689   0.02171   1.000
    O211    O    0.23248   0.29552   0.95304   1.000
    O212    O    0.23467   0.30784   0.03149   1.000
    O213    O    0.39264   0.29672   0.95422   1.000
    Zr214   Zr   0.56240   0.73109   0.01916   1.000
    O215    O    0.64372   0.70324   0.04570   1.000
    O216    O    0.48117   0.70445   0.04690   1.000
    O217    O    0.54877   0.77313   0.97831   1.000
    O218    O    0.55077   0.78174   0.05799   1.000
    O219    O    0.57610   0.77195   0.97715   1.000
    O220    O    0.57399   0.69214   0.96860   1.000
    Zr221   Zr   0.20659   0.98084   0.73112   1.000
    O222    O    0.16754   0.94204   0.78179   1.000
    O223    O    0.15311   0.95423   0.70331   1.000
    O224    O    0.31444   0.95306   0.70452   1.000
    O225    O    0.15205   0.02284   0.77201   1.000
    O226    O    0.17820   0.02168   0.77319   1.000
    O227    O    0.23391   0.03142   0.69218   1.000
    Zr228   Zr   0.06250   0.23090   0.51910   1.000
    O229    O    0.98123   0.20428   0.54691   1.000
    O230    O    0.14382   0.20305   0.54566   1.000
    O231    O    0.07403   0.19210   0.46842   1.000
    O232    O    0.05091   0.28150   0.55808   1.000
    O233    O    0.04884   0.27295   0.47824   1.000
    O234    O    0.07623   0.27170   0.47698   1.000
    Zr235   Zr   0.56241   0.73112   0.51888   1.000
    O236    O    0.64366   0.70334   0.54552   1.000
    O237    O    0.57406   0.69219   0.46824   1.000
    O238    O    0.55083   0.78166   0.55786   1.000
    O239    O    0.54869   0.77326   0.47808   1.000
    O240    O    0.57608   0.77202   0.47683   1.000
    O241    O    0.48105   0.70460   0.54677   1.000
    Zr242   Zr   0.91851   0.01886   0.76912   1.000
    O243    O    0.95757   0.96829   0.80801   1.000
    O244    O    0.81064   0.04544   0.79694   1.000
    O245    O    0.94689   0.97682   0.72827   1.000
    O246    O    0.97200   0.04660   0.79576   1.000
    O247    O    0.89118   0.05775   0.71850   1.000
    O248    O    0.97306   0.97800   0.72706   1.000
    Zr249   Zr   0.31250   0.76908   0.98115   1.000
    O250    O    0.23242   0.79570   0.95339   1.000
    O251    O    0.32498   0.72820   0.02315   1.000
    O252    O    0.39040   0.71846   0.94226   1.000
    O253    O    0.39259   0.79687   0.95455   1.000
    O254    O    0.23455   0.80794   0.03175   1.000
    O255    O    0.30004   0.72698   0.02195   1.000
loop_
    _geom_bond_atom_site_label_1
    _geom_bond_atom_site_label_2
    _geom_bond_distance
    _geom_bond_site_symmetry_2
    _ccdc_geom_bond_type
    Zr32   O33       1.37162      .   S
    N26    O33       3.01130  1_455   S
    Zr32   O34       1.19313      .   S
    N14    O34       2.53333      .   S
    Zr32   O35       1.37133      .   S
    N10    O35       3.01093      .   S
    Zr32   O36       1.41405      .   S
    N9     O36       3.09892  1_455   S
    Zr32   O37       1.41392      .   S
    N8     O37       3.09864      .   S
    Zr32   O38       1.19322      .   S
    N14    O38       2.53326      .   S
    Zr39   O40       1.41374      .   S
    N29    O40       3.09831      .   S
    Zr39   O41       1.19331      .   S
    N23    O41       2.53364      .   S
    Zr39   O42       1.41403      .   S
    N25    O42       3.09895      .   S
    Zr39   O43       1.37155      .   S
    N19    O43       3.01121      .   S
    Zr39   O44       1.37138      .   S
    N5     O44       3.01057      .   S
    Zr39   O45       1.19327      .   S
    N23    O45       2.53367      .   S
    Zr46   O47       1.41411  1_455   S
    N14    O47       3.09904      .   S
    Zr46   O48       1.37064      .   S
    N3     O48       3.00902      .   S
    Zr46   O49       1.41396      .   S
    N6     O49       3.09879      .   S
    Zr46   O50       1.19312      .   S
    N9     O50       2.53307      .   S
    Zr46   O51       1.19320      .   S
    N9     O51       2.53300      .   S
    Zr46   O52       1.37150      .   S
    N26    O52       3.01071      .   S
    Zr53   O54       1.37178      .   S
    N21    O54       3.01147      .   S
    Zr53   O55       1.41398      .   S
    N23    O55       3.09875      .   S
    Zr53   O56       1.19298      .   S
    N25    O56       2.53301      .   S
    Zr53   O57       1.37066      .   S
    N19    O57       3.00892      .   S
    Zr53   O58       1.41403      .   S
    N24    O58       3.09886      .   S
    Zr53   O59       1.19311      .   S
    N25    O59       2.53292      .   S
    Zr60   O61       1.37054      .   S
    N30    O61       3.00891      .   S
    Zr60   O62       1.19267  1_545   S
    N1     O62       2.53211      .   S
    Zr60   O63       1.19254  1_545   S
    N1     O63       2.53222      .   S
    Zr60   O64       1.41327      .   S
    N19    O64       3.09742      .   S
    Zr60   O65       1.37083  1_545   S
    N8     O65       3.00964      .   S
    Zr60   O66       1.41404      .   S
    N28    O66       3.09920      .   S
    Zr67   O68       1.41330  1_455   S
    N20    O68       3.09769      .   S
    Zr67   O69       1.19359  1_554   S
    N12    O69       2.53326      .   S
    Zr67   O70       1.37091      .   S
    N15    O70       3.00992      .   S
    Zr67   O71       1.37016  1_554   S
    N11    O71       3.00835      .   S
    Zr67   O72       1.19281  1_554   S
    N12    O72       2.53390      .   S
    Zr67   O73       1.41385      .   S
    N30    O73       3.09871      .   S
    Zr74   O75       1.19206  1_556   S
    N20    O75       2.53130      .   S
    Zr74   O76       1.41436      .   S
    N12    O76       3.10016  1_455   S
    Zr74   O77       1.37103      .   S
    N11    O77       3.00995  1_455   S
    Zr74   O78       1.19215  1_556   S
    N20    O78       2.53123      .   S
    Zr74   O79       1.37083  1_556   S
    N4     O79       3.00937      .   S
    Zr74   O80       1.41369      .   S
    N18    O80       3.09831      .   S
    Zr81   O82       1.19288      .   S
    N22    O82       2.53284      .   S
    Zr81   O83       1.41408      .   S
    N21    O83       3.09907  1_455   S
    Zr81   O84       1.37160      .   S
    N14    O84       3.01100      .   S
    Zr81   O85       1.41397      .   S
    N5     O85       3.09878      .   S
    Zr81   O86       1.37053      .   S
    N18    O86       3.00853      .   S
    Zr81   O87       1.19304      .   S
    N22    O87       2.53269      .   S
    Zr88   O89       1.41383      .   S
    N22    O89       3.09844      .   S
    Zr88   O90       1.37134      .   S
    N14    O90       3.01068      .   S
    Zr88   O91       1.41392      .   S
    N2     O91       3.09857  1_455   S
    Zr88   O92       1.37123      .   S
    N12    O92       3.01037  1_455   S
    Zr88   O93       1.19332      .   S
    N21    O93       2.53351  1_455   S
    Zr88   O94       1.19327      .   S
    N21    O94       2.53354  1_455   S
    Zr95   O96       1.19259  1_556   S
    N17    O96       2.53160      .   S
    Zr95   O97       1.41388      .   S
    N16    O97       3.09884  1_455   S
    Zr95   O98       1.19218  1_556   S
    N17    O98       2.53194      .   S
    Zr95   O99       1.37086      .   S
    N2     O99       3.00976  1_455   S
    Zr95   O100      1.37063  1_556   S
    N1     O100      3.00972      .   S
    Zr95   O101      1.41344      .   S
    N13    O101      3.09807      .   S
    Zr102  O103      1.41403      .   S
    N19    O103      3.09918      .   S
    Zr102  O104      1.41333      .   S
    N28    O104      3.09748  1_455   S
    Zr102  O105      1.19264  1_545   S
    N0     O105      2.53197  1_455   S
    Zr102  O106      1.19247  1_545   S
    N0     O106      2.53211  1_455   S
    Zr102  O107      1.37085  1_545   S
    N9     O107      3.00970  1_455   S
    Zr102  O108      1.37049      .   S
    N20    O108      3.00876      .   S
    Zr109  O110      1.19338      .   S
    N26    O110      2.53338      .   S
    Zr109  O111      1.41338      .   S
    N15    O111      3.09762      .   S
    Zr109  O112      1.37169      .   S
    N24    O112      3.01130      .   S
    Zr109  O113      1.37110      .   S
    N7     O113      3.01011      .   S
    Zr109  O114      1.41393      .   S
    N4     O114      3.09871      .   S
    Zr109  O115      1.19316      .   S
    N26    O115      2.53355      .   S
    Zr116  O117      1.41384      .   S
    N22    O117      3.09841      .   S
    Zr116  O118      1.19325      .   S
    N5     O118      2.53351      .   S
    Zr116  O119      1.41385      .   S
    N2     O119      3.09850      .   S
    Zr116  O120      1.19330      .   S
    N5     O120      2.53349      .   S
    Zr116  O121      1.37133      .   S
    N6     O121      3.01063      .   S
    Zr116  O122      1.37152      .   S
    N18    O122      3.01118      .   S
    Zr123  O124      1.19288  1_565   S
    N28    O124      2.53235      .   S
    Zr123  O125      1.41370      .   S
    N0     O125      3.09844      .   S
    Zr123  O126      1.41336      .   S
    N1     O126      3.09776      .   S
    Zr123  O127      1.37061  1_565   S
    N30    O127      3.00926      .   S
    Zr123  O128      1.37075      .   S
    N9     O128      3.00955      .   S
    Zr123  O129      1.19258  1_565   S
    N28    O129      2.53258      .   S
    Zr130  O131      1.37138      .   S
    N3     O131      3.01087      .   S
    Zr130  O132      1.41391      .   S
    N9     O132      3.09867      .   S
    Zr130  O133      1.41401      .   S
    N8     O133      3.09884      .   S
    Zr130  O134      1.37160      .   S
    N27    O134      3.01125      .   S
    Zr130  O135      1.19322      .   S
    N6     O135      2.53327      .   S
    Zr130  O136      1.19313      .   S
    N6     O136      2.53333      .   S
    Zr137  O138      1.37148      .   S
    N23    O138      3.01105      .   S
    Zr137  O139      1.19315      .   S
    N27    O139      2.53352      .   S
    Zr137  O140      1.19337      .   S
    N27    O140      2.53335      .   S
    Zr137  O141      1.41336      .   S
    N4     O141      3.09754      .   S
    Zr137  O142      1.37111      .   S
    N17    O142      3.01013      .   S
    Zr137  O143      1.41395      .   S
    N15    O143      3.09879  1_455   S
    Zr144  O145      1.37161      .   S
    N6     O145      3.01100      .   S
    Zr144  O146      1.19287      .   S
    N2     O146      2.53286      .   S
    Zr144  O147      1.19303      .   S
    N2     O147      2.53272      .   S
    Zr144  O148      1.37026      .   S
    N12    O148      3.00786      .   S
    Zr144  O149      1.41404      .   S
    N5     O149      3.09896      .   S
    Zr144  O150      1.41404      .   S
    N21    O150      3.09890      .   S
    Zr151  O152      1.19261  1_554   S
    N18    O152      2.53312      .   S
    Zr151  O153      1.19334  1_554   S
    N18    O153      2.53254      .   S
    Zr151  O154      1.41323      .   S
    N30    O154      3.09753      .   S
    Zr151  O155      1.37088      .   S
    N4     O155      3.00989      .   S
    Zr151  O156      1.41386      .   S
    N20    O156      3.09877      .   S
    Zr151  O157      1.37022  1_554   S
    N31    O157      3.00842      .   S
    Zr158  O159      1.41364      .   S
    N3     O159      3.09828  1_455   S
    Zr158  O160      1.19261  1_565   S
    N31    O160      2.53191      .   S
    Zr158  O161      1.37033      .   S
    N13    O161      3.00870      .   S
    Zr158  O162      1.19243  1_565   S
    N31    O162      2.53207      .   S
    Zr158  O163      1.41404      .   S
    N10    O163      3.09916      .   S
    Zr158  O164      1.37084  1_565   S
    N29    O164      3.00949      .   S
    Zr165  O166      1.41350      .   S
    N31    O166      3.09805      .   S
    Zr165  O167      1.37062  1_545   S
    N13    O167      3.00924      .   S
    Zr165  O168      1.37107      .   S
    N25    O168      3.01023      .   S
    Zr165  O169      1.19249  1_545   S
    N10    O169      2.53262      .   S
    Zr165  O170      1.19297  1_545   S
    N10    O170      2.53224      .   S
    Zr165  O171      1.41388      .   S
    N11    O171      3.09882      .   S
    Zr172  O173      1.37174      .   S
    N24    O173      3.01133  1_455   S
    Zr172  O174      1.41391      .   S
    N26    O174      3.09858  1_455   S
    Zr172  O175      1.19275      .   S
    N15    O175      2.53253  1_455   S
    Zr172  O176      1.19279      .   S
    N15    O176      2.53250  1_455   S
    Zr172  O177      1.41405      .   S
    N27    O177      3.09888      .   S
    Zr172  O178      1.37099      .   S
    N17    O178      3.00976      .   S
    Zr179  O180      1.41373  1_455   S
    N17    O180      3.09840      .   S
    Zr179  O181      1.37036      .   S
    N0     O181      3.00832      .   S
    Zr179  O182      1.37068  1_554   S
    N2     O182      3.00932      .   S
    Zr179  O183      1.19246  1_554   S
    N16    O183      2.53171      .   S
    Zr179  O184      1.41370      .   S
    N7     O184      3.09852      .   S
    Zr179  O185      1.19239  1_554   S
    N16    O185      2.53178      .   S
    Zr186  O187      1.19291  1_565   S
    N19    O187      2.53235      .   S
    Zr186  O188      1.41340      .   S
    N0     O188      3.09786  1_455   S
    Zr186  O189      1.41370      .   S
    N1     O189      3.09848      .   S
    Zr186  O190      1.19258  1_565   S
    N19    O190      2.53261      .   S
    Zr186  O191      1.37075      .   S
    N8     O191      3.00953      .   S
    Zr186  O192      1.37059  1_565   S
    N20    O192      3.00923      .   S
    Zr193  O194      1.41404      .   S
    N26    O194      3.09889      .   S
    Zr193  O195      1.37158      .   S
    N23    O195      3.01082      .   S
    Zr193  O196      1.19283      .   S
    N4     O196      2.53256      .   S
    Zr193  O197      1.37102      .   S
    N7     O197      3.00978      .   S
    Zr193  O198      1.19278      .   S
    N4     O198      2.53259      .   S
    Zr193  O199      1.41380      .   S
    N27    O199      3.09839      .   S
    Zr200  O201      1.41399      .   S
    N24    O201      3.09878  1_455   S
    Zr200  O202      1.37068      .   S
    N28    O202      3.00898  1_455   S
    Zr200  O203      1.37180      .   S
    N5     O203      3.01149      .   S
    Zr200  O204      1.19300      .   S
    N29    O204      2.53305      .   S
    Zr200  O205      1.19312      .   S
    N29    O205      2.53296      .   S
    Zr200  O206      1.41413      .   S
    N23    O206      3.09920      .   S
    Zr207  O208      1.37104      .   S
    N31    O208      3.00990      .   S
    Zr207  O209      1.19209  1_556   S
    N30    O209      2.53115      .   S
    Zr207  O210      1.19212  1_556   S
    N30    O210      2.53111      .   S
    Zr207  O211      1.41399      .   S
    N12    O211      3.09920      .   S
    Zr207  O212      1.37080  1_556   S
    N15    O212      3.00937      .   S
    Zr207  O213      1.41430      .   S
    N18    O213      3.09990      .   S
    Zr214  O215      1.41365      .   S
    N17    O215      3.09844      .   S
    Zr214  O216      1.41367      .   S
    N7     O216      3.09831      .   S
    Zr214  O217      1.19244  1_554   S
    N13    O217      2.53176      .   S
    Zr214  O218      1.37031      .   S
    N1     O218      3.00822      .   S
    Zr214  O219      1.19240  1_554   S
    N13    O219      2.53180      .   S
    Zr214  O220      1.37076  1_554   S
    N22    O220      3.00947      .   S
    Zr221  O222      1.37045      .   S
    N16    O222      3.00860      .   S
    Zr221  O223      1.41406      .   S
    N3     O223      3.09922      .   S
    Zr221  O224      1.41360      .   S
    N10    O224      3.09816      .   S
    Zr221  O225      1.19244  1_565   S
    N11    O225      2.53210      .   S
    Zr221  O226      1.19263  1_565   S
    N11    O226      2.53194      .   S
    Zr221  O227      1.37087  1_565   S
    N25    O227      3.00953      .   S
    Zr228  O229      1.41415  1_455   S
    N29    O229      3.09919      .   S
    Zr228  O230      1.41407      .   S
    N25    O230      3.09888      .   S
    Zr228  O231      1.37113      .   S
    N28    O231      3.01049      .   S
    Zr228  O232      1.37173      .   S
    N21    O232      3.01113      .   S
    Zr228  O233      1.19270      .   S
    N24    O233      2.53274      .   S
    Zr228  O234      1.19285      .   S
    N24    O234      2.53260      .   S
    Zr235  O236      1.41397      .   S
    N14    O236      3.09879      .   S
    Zr235  O237      1.37160      .   S
    N27    O237      3.01067      .   S
    Zr235  O238      1.37073      .   S
    N10    O238      3.00901      .   S
    Zr235  O239      1.19304      .   S
    N8     O239      2.53312      .   S
    Zr235  O240      1.19320      .   S
    N8     O240      2.53298      .   S
    Zr235  O241      1.41405      .   S
    N6     O241      3.09896      .   S
    Zr242  O243      1.37053  1_545   S
    N16    O243      3.00938  1_455   S
    Zr242  O244      1.41387      .   S
    N31    O244      3.09881      .   S
    Zr242  O245      1.19249  1_545   S
    N3     O245      2.53265  1_455   S
    Zr242  O246      1.41357      .   S
    N11    O246      3.09816  1_455   S
    Zr242  O247      1.37106      .   S
    N29    O247      3.01018      .   S
    Zr242  O248      1.19298  1_545   S
    N3     O248      2.53225  1_455   S
    Zr249  O250      1.41353      .   S
    N16    O250      3.09804      .   S
    Zr249  O251      1.19219  1_556   S
    N7     O251      2.53197      .   S
    Zr249  O252      1.37095      .   S
    N22    O252      3.00970      .   S
    Zr249  O253      1.41386      .   S
    N13    O253      3.09874      .   S
    Zr249  O254      1.37078  1_556   S
    N0     O254      3.00973      .   S
    Zr249  O255      1.19261  1_556   S
    N7     O255      2.53163      .   S
