# CIF file generated by openbabel 2.4.90, see http://openbabel.sf.net
data_I
_chemical_name_common ''
_cell_length_a 16.019
_cell_length_b 20.377
_cell_length_c 12.161
_cell_angle_alpha 114.729
_cell_angle_beta 98.091
_cell_angle_gamma 89.99
_space_group_name_H-M_alt 'P 1'
_space_group_name_Hall 'P 1'
loop_
    _symmetry_equiv_pos_as_xyz
    x,y,z
loop_
    _atom_site_label
    _atom_site_type_symbol
    _atom_site_fract_x
    _atom_site_fract_y
    _atom_site_fract_z
    _atom_site_occupancy
    Cd0     Cd   0.00001   0.49998   0.50002   1.000
    Cd1     Cd   0.50000   0.99999   0.50002   1.000
    Cd2     Cd   0.50000   0.49998   0.50002   1.000
    Cd3     Cd   0.25000   0.24999   0.50001   1.000
    Cd4     Cd   0.25000   0.74998   0.50001   1.000
    Cd5     Cd   0.75000   0.24999   0.50002   1.000
    Cd6     Cd   0.75000   0.74998   0.50001   1.000
    Cd7     Cd   0.00001   0.99999   0.50002   1.000
