# CIF file generated by openbabel 2.4.90, see http://openbabel.sf.net
data_I
_chemical_name_common ''
_cell_length_a 16.019
_cell_length_b 20.377
_cell_length_c 12.161
_cell_angle_alpha 114.729
_cell_angle_beta 98.091
_cell_angle_gamma 89.99
_space_group_name_H-M_alt 'P 1'
_space_group_name_Hall 'P 1'
loop_
    _symmetry_equiv_pos_as_xyz
    x,y,z
loop_
    _atom_site_label
    _atom_site_type_symbol
    _atom_site_fract_x
    _atom_site_fract_y
    _atom_site_fract_z
    _atom_site_occupancy
    N0      N    0.87509   0.55890   0.00026   1.000
    N1      N    0.37508   0.05440   0.00025   1.000
    N2      N    0.37510   0.55890   0.00023   1.000
    N3      N    0.87509   0.05891   0.00026   1.000
    N4      N    0.12492   0.94557   0.99977   1.000
    N5      N    0.12492   0.44557   0.99973   1.000
    N6      N    0.62492   0.94557   0.99977   1.000
    N7      N    0.62492   0.44558   0.99977   1.000
    N8      N    0.83585   0.40596   0.38524   1.000
    N9      N    0.83585   0.90596   0.38523   1.000
    N10     N    0.07286   0.31881   0.41314   1.000
    N11     N    0.07286   0.81881   0.41318   1.000
    N12     N    0.57285   0.31881   0.41319   1.000
    N13     N    0.57285   0.81881   0.41319   1.000
    N14     N    0.17711   0.11193   0.58638   1.000
    N15     N    0.17711   0.61193   0.58638   1.000
    N16     N    0.67710   0.11193   0.58638   1.000
    N17     N    0.67710   0.61193   0.58638   1.000
    N18     N    0.42715   0.18116   0.58685   1.000
    N19     N    0.42715   0.68116   0.58685   1.000
    N20     N    0.92714   0.18116   0.58685   1.000
    N21     N    0.92714   0.68116   0.58684   1.000
    N22     N    0.32290   0.38804   0.41365   1.000
    N23     N    0.32290   0.88804   0.41365   1.000
    Zr24    Zr   0.50000   0.49998   0.50002   1.000
    O25     O    0.56332   0.53637   0.54014   1.000
    O26     O    0.53769   0.48583   0.35272   1.000
    O27     O    0.52446   0.44051   0.47448   1.000
    O28     O    0.47554   0.55946   0.52556   1.000
    O29     O    0.43668   0.46360   0.45990   1.000
    O30     O    0.46232   0.51526   0.64731   1.000
    Zr31    Zr   0.25000   0.24999   0.50001   1.000
    O32     O    0.18672   0.26636   0.45962   1.000
    O33     O    0.22548   0.20323   0.52545   1.000
    O34     O    0.27453   0.29674   0.47457   1.000
    O35     O    0.31328   0.23361   0.54039   1.000
    O36     O    0.28775   0.19053   0.35289   1.000
    O37     O    0.21225   0.30945   0.64712   1.000
    Zr38    Zr   0.25000   0.74998   0.50001   1.000
    O39     O    0.27453   0.79674   0.47457   1.000
    O40     O    0.18672   0.76636   0.45963   1.000
    O41     O    0.22548   0.70323   0.52545   1.000
    O42     O    0.31328   0.73361   0.54039   1.000
    O43     O    0.28776   0.69165   0.35288   1.000
    O44     O    0.21225   0.80944   0.64713   1.000
    Zr45    Zr   0.75000   0.24999   0.50002   1.000
    O46     O    0.78775   0.19166   0.35290   1.000
    O47     O    0.71225   0.30945   0.64714   1.000
    O48     O    0.77776   0.30122   0.46748   1.000
    O49     O    0.68672   0.26636   0.45964   1.000
    O50     O    0.72547   0.20323   0.52545   1.000
    O51     O    0.81328   0.23361   0.54040   1.000
    Zr52    Zr   0.75000   0.74998   0.50001   1.000
    O53     O    0.71225   0.80944   0.64713   1.000
    O54     O    0.72547   0.70323   0.52545   1.000
    O55     O    0.77776   0.80122   0.46747   1.000
    O56     O    0.68672   0.76636   0.45963   1.000
    O57     O    0.81328   0.73361   0.54039   1.000
    O58     O    0.78775   0.69165   0.35288   1.000
    Zr59    Zr   0.00001   0.99999   0.50002   1.000
    O60     O    0.96232   0.01527   0.64732   1.000
    O61     O    0.93993   0.96808   0.45280   1.000
    O62     O    0.02447   0.94051   0.47448   1.000
    O63     O    0.06332   0.03637   0.54013   1.000
    O64     O    0.97554   0.05946   0.52556   1.000
    O65     O    0.03769   0.98583   0.35272   1.000
    Zr66    Zr   0.50000   0.99999   0.50002   1.000
    O67     O    0.47553   0.05946   0.52556   1.000
    O68     O    0.52446   0.94051   0.47448   1.000
    O69     O    0.43668   0.96360   0.45990   1.000
    O70     O    0.56331   0.03637   0.54013   1.000
    O71     O    0.53769   0.98583   0.35272   1.000
    O72     O    0.46231   0.01414   0.64732   1.000
    Zr73    Zr   0.00001   0.49998   0.50002   1.000
    O74     O    0.93993   0.46808   0.45280   1.000
    O75     O    0.02447   0.44051   0.47446   1.000
    O76     O    0.06333   0.53637   0.54014   1.000
    O77     O    0.97554   0.55946   0.52555   1.000
    O78     O    0.96232   0.51526   0.64732   1.000
    O79     O    0.03769   0.48583   0.35271   1.000
loop_
    _geom_bond_atom_site_label_1
    _geom_bond_atom_site_label_2
    _geom_bond_distance
    _geom_bond_site_symmetry_2
    _ccdc_geom_bond_type
    Zr24   O25       1.17251      .   S
    N17    O25       2.23545      .   S
    Zr24   O26       1.87846      .   S
    N7     O26       4.44868  1_556   S
    Zr24   O27       1.19912      .   S
    N12    O27       2.43345      .   S
    Zr24   O28       1.19913      .   S
    N19    O28       2.43346      .   S
    Zr24   O29       1.17251      .   S
    N22    O29       2.23544      .   S
    Zr24   O30       1.87280      .   S
    N2     O30       4.43365  1_554   S
    Zr31   O32       1.17351      .   S
    N10    O32       2.23671      .   S
    Zr31   O33       1.19943      .   S
    N14    O33       2.43438      .   S
    Zr31   O34       1.19941      .   S
    N22    O34       2.43433      .   S
    Zr31   O35       1.17346      .   S
    N18    O35       2.23668      .   S
    Zr31   O36       1.87762      .   S
    N1     O36       4.44713      .   S
    Zr31   O37       1.87753      .   S
    N5     O37       4.44680      .   S
    Zr38   O39       1.19942      .   S
    N23    O39       2.43436      .   S
    Zr38   O40       1.17343      .   S
    N11    O40       2.23662      .   S
    Zr38   O41       1.19942      .   S
    N15    O41       2.43436      .   S
    Zr38   O42       1.17345      .   S
    N19    O42       2.23666      .   S
    Zr38   O43       1.87217      .   S
    N2     O43       4.43269      .   S
    Zr38   O44       1.87762      .   S
    N4     O44       4.44709      .   S
    Zr45   O46       1.87212      .   S
    N3     O46       4.43250      .   S
    Zr45   O47       1.87760      .   S
    N7     O47       4.44703      .   S
    Zr45   O48       1.35635      .   S
    N8     O48       2.91027      .   S
    Zr45   O49       1.17344      .   S
    N12    O49       2.23664      .   S
    Zr45   O50       1.19940      .   S
    N16    O50       2.43432      .   S
    Zr45   O51       1.17343      .   S
    N20    O51       2.23663      .   S
    Zr52   O53       1.87761      .   S
    N6     O53       4.44708      .   S
    Zr52   O54       1.19943      .   S
    N17    O54       2.43438      .   S
    Zr52   O55       1.35634      .   S
    N9     O55       2.91029      .   S
    Zr52   O56       1.17343      .   S
    N13    O56       2.23663      .   S
    Zr52   O57       1.17344      .   S
    N21    O57       2.23663      .   S
    Zr52   O58       1.87214      .   S
    N0     O58       4.43240      .   S
    Zr59   O60       1.87293  1_465   S
    N3     O60       4.43400  1_554   S
    Zr59   O61       1.10047  1_455   S
    N9     O61       1.94985      .   S
    Zr59   O62       1.19916      .   S
    N11    O62       2.43351      .   S
    Zr59   O63       1.17250  1_565   S
    N14    O63       2.23544      .   S
    Zr59   O64       1.19917  1_465   S
    N20    O64       2.43354      .   S
    Zr59   O65       1.87846      .   S
    N4     O65       4.44867  1_556   S
    Zr66   O67       1.19913  1_565   S
    N18    O67       2.43346      .   S
    Zr66   O68       1.19916      .   S
    N13    O68       2.43351      .   S
    Zr66   O69       1.17249      .   S
    N23    O69       2.23544      .   S
    Zr66   O70       1.17252  1_565   S
    N16    O70       2.23549      .   S
    Zr66   O71       1.87848      .   S
    N6     O71       4.44872  1_556   S
    Zr66   O72       1.87839  1_565   S
    N1     O72       4.44852  1_554   S
    Zr73   O74       1.10049  1_455   S
    N8     O74       1.94988      .   S
    Zr73   O75       1.19909      .   S
    N10    O75       2.43343      .   S
    Zr73   O76       1.17250      .   S
    N15    O76       2.23542      .   S
    Zr73   O77       1.19917  1_455   S
    N21    O77       2.43353      .   S
    Zr73   O78       1.87293  1_455   S
    N0     O78       4.43400  1_554   S
    Zr73   O79       1.87856      .   S
    N5     O79       4.44901  1_556   S
