# CIF file generated by openbabel 2.4.90, see http://openbabel.sf.net
data_I
_chemical_name_common ''
_cell_length_a 16.019
_cell_length_b 20.377
_cell_length_c 12.161
_cell_angle_alpha 114.729
_cell_angle_beta 98.091
_cell_angle_gamma 89.99
_space_group_name_H-M_alt 'P 1'
_space_group_name_Hall 'P 1'
loop_
    _symmetry_equiv_pos_as_xyz
    x,y,z
loop_
    _atom_site_label
    _atom_site_type_symbol
    _atom_site_fract_x
    _atom_site_fract_y
    _atom_site_fract_z
    _atom_site_occupancy
    Zr0     Zr   0.00001   0.99999   0.50002   1.000
    Zr1     Zr   0.00001   0.49998   0.50002   1.000
    Zr2     Zr   0.50000   0.99999   0.50002   1.000
    Zr3     Zr   0.50000   0.49998   0.50002   1.000
    Zr4     Zr   0.25000   0.24999   0.50001   1.000
    Zr5     Zr   0.25000   0.74998   0.50001   1.000
    Zr6     Zr   0.75000   0.24999   0.50002   1.000
    Zr7     Zr   0.75000   0.74998   0.50001   1.000
    Zr8     Zr   0.37473   0.45971   0.10000   1.000
    N9      N    0.87509   0.55890   0.00026   1.000
    O10     O    0.92463   0.53054   0.79462   1.000
    O11     O    0.82551   0.63332   0.20576   1.000
    N12     N    0.37508   0.05440   0.00025   1.000
    O13     O    0.42463   0.02829   0.79461   1.000
    O14     O    0.32550   0.13107   0.20577   1.000
    N15     N    0.37510   0.55890   0.00023   1.000
    O16     O    0.42463   0.53054   0.79460   1.000
    O17     O    0.32551   0.63332   0.20575   1.000
    N18     N    0.87509   0.05891   0.00026   1.000
    O19     O    0.92463   0.03055   0.79462   1.000
    O20     O    0.82551   0.13332   0.20577   1.000
    N21     N    0.12492   0.94557   0.99977   1.000
    O22     O    0.07538   0.97168   0.20542   1.000
    O23     O    0.17450   0.86890   0.79426   1.000
    N24     N    0.12492   0.44557   0.99973   1.000
    O25     O    0.07538   0.47168   0.20540   1.000
    O26     O    0.17450   0.36890   0.79424   1.000
    N27     N    0.62492   0.94557   0.99977   1.000
    O28     O    0.57537   0.97168   0.20542   1.000
    O29     O    0.67450   0.86890   0.79426   1.000
    N30     N    0.62492   0.44558   0.99977   1.000
    O31     O    0.57537   0.47168   0.20542   1.000
    O32     O    0.67450   0.36890   0.79426   1.000
    N33     N    0.83585   0.40596   0.38524   1.000
    O34     O    0.87984   0.43618   0.40558   1.000
    O35     O    0.80553   0.35245   0.43494   1.000
    N36     N    0.83585   0.90596   0.38523   1.000
    O37     O    0.87984   0.93618   0.40557   1.000
    O38     O    0.80553   0.85245   0.43493   1.000
    N39     N    0.07286   0.31881   0.41314   1.000
    O40     O    0.12344   0.28274   0.41922   1.000
    O41     O    0.04893   0.38104   0.44890   1.000
    N42     N    0.07286   0.81881   0.41318   1.000
    O43     O    0.12344   0.78274   0.41926   1.000
    O44     O    0.04893   0.88104   0.44894   1.000
    N45     N    0.57285   0.31881   0.41319   1.000
    O46     O    0.62343   0.28274   0.41926   1.000
    O47     O    0.54893   0.38104   0.44895   1.000
    N48     N    0.57285   0.81881   0.41319   1.000
    O49     O    0.62343   0.78274   0.41926   1.000
    O50     O    0.54893   0.88104   0.44895   1.000
    N51     N    0.17711   0.11193   0.58638   1.000
    O52     O    0.20095   0.15648   0.55089   1.000
    O53     O    0.12664   0.07275   0.58025   1.000
    N54     N    0.17711   0.61193   0.58638   1.000
    O55     O    0.20095   0.65648   0.55089   1.000
    O56     O    0.12664   0.57275   0.58025   1.000
    N57     N    0.67710   0.11193   0.58638   1.000
    O58     O    0.62663   0.07275   0.58024   1.000
    O59     O    0.70094   0.15648   0.55089   1.000
    N60     N    0.67710   0.61193   0.58638   1.000
    O61     O    0.62664   0.57275   0.58025   1.000
    O62     O    0.70095   0.65648   0.55089   1.000
    N63     N    0.42715   0.18116   0.58685   1.000
    O64     O    0.37657   0.21723   0.58077   1.000
    O65     O    0.45107   0.11893   0.55109   1.000
    N66     N    0.42715   0.68116   0.58685   1.000
    O67     O    0.37657   0.71723   0.58077   1.000
    O68     O    0.45108   0.61893   0.55109   1.000
    N69     N    0.92714   0.18116   0.58685   1.000
    O70     O    0.87656   0.21723   0.58077   1.000
    O71     O    0.95107   0.11894   0.55109   1.000
    N72     N    0.92714   0.68116   0.58684   1.000
    O73     O    0.87656   0.71723   0.58077   1.000
    O74     O    0.95107   0.61893   0.55109   1.000
    N75     N    0.32290   0.38804   0.41365   1.000
    O76     O    0.37337   0.42722   0.41978   1.000
    O77     O    0.29905   0.34349   0.44914   1.000
    N78     N    0.32290   0.88804   0.41365   1.000
    O79     O    0.37337   0.92722   0.41978   1.000
    O80     O    0.29906   0.84349   0.44914   1.000
loop_
    _geom_bond_atom_site_label_1
    _geom_bond_atom_site_label_2
    _geom_bond_distance
    _geom_bond_site_symmetry_2
    _ccdc_geom_bond_type
    N9     O10       2.56270  1_554   S
    Zr1    O10       3.74587  1_455   S
    N9     O11       2.56191      .   S
    Zr7    O11       3.74428      .   S
    N12    O13       2.57146  1_554   S
    Zr2    O13       3.75677  1_565   S
    N12    O14       2.57086      .   S
    Zr4    O14       3.75523      .   S
    N15    O16       2.56248  1_554   S
    Zr3    O16       3.74560      .   S
    N15    O17       2.56217      .   S
    Zr5    O17       3.74434      .   S
    N18    O19       2.56270  1_554   S
    Zr0    O19       3.74586  1_465   S
    N18    O20       2.56204      .   S
    Zr6    O20       3.74423      .   S
    N21    O22       2.57154  1_556   S
    Zr0    O22       3.75692      .   S
    N21    O23       2.57082      .   S
    Zr5    O23       3.75523      .   S
    N24    O25       2.57178  1_556   S
    Zr1    O25       3.75712      .   S
    N24    O26       2.57062      .   S
    Zr4    O26       3.75506      .   S
    N27    O28       2.57157  1_556   S
    Zr2    O28       3.75696      .   S
    N27    O29       2.57082      .   S
    Zr7    O29       3.75523      .   S
    N30    O31       2.57155  1_556   S
    Zr3    O31       3.75692      .   S
    N30    O32       2.57079      .   S
    Zr6    O32       3.75519      .   S
    N33    O34       0.87214      .   S
    Zr1    O34       2.20098  1_455   S
    N33    O35       1.55695      .   S
    Zr6    O35       2.71269      .   S
    N36    O37       0.87214      .   S
    Zr0    O37       2.20095  1_455   S
    N36    O38       1.55697      .   S
    Zr7    O38       2.71269      .   S
    N39    O40       1.10933      .   S
    Zr4    O40       2.34701      .   S
    N39    O41       1.23661      .   S
    Zr1    O41       2.39819      .   S
    N42    O43       1.10931      .   S
    Zr5    O43       2.34686      .   S
    N42    O44       1.23664      .   S
    Zr0    O44       2.39831      .   S
    N45    O46       1.10932      .   S
    Zr6    O46       2.34689      .   S
    N45    O47       1.23661      .   S
    Zr3    O47       2.39825      .   S
    N48    O49       1.10931      .   S
    Zr7    O49       2.34687      .   S
    N48    O50       1.23664      .   S
    Zr2    O50       2.39832      .   S
    N51    O52       1.23714      .   S
    Zr4    O52       2.39887      .   S
    N51    O53       1.10901      .   S
    Zr0    O53       2.34501  1_565   S
    N54    O55       1.23714      .   S
    Zr5    O55       2.39885      .   S
    N54    O56       1.10900      .   S
    Zr1    O56       2.34499      .   S
    N57    O58       1.10903      .   S
    Zr2    O58       2.34504  1_565   S
    N57    O59       1.23712      .   S
    Zr6    O59       2.39881      .   S
    N60    O61       1.10901      .   S
    Zr3    O61       2.34502      .   S
    N60    O62       1.23714      .   S
    Zr7    O62       2.39886      .   S
    N63    O64       1.10934      .   S
    Zr4    O64       2.34692      .   S
    N63    O65       1.23662      .   S
    Zr2    O65       2.39825  1_565   S
    N66    O67       1.10933      .   S
    Zr5    O67       2.34690      .   S
    N66    O68       1.23662      .   S
    Zr3    O68       2.39826      .   S
    N69    O70       1.10932      .   S
    Zr6    O70       2.34686      .   S
    N69    O71       1.23665      .   S
    Zr0    O71       2.39835  1_465   S
    N72    O73       1.10932      .   S
    Zr7    O73       2.34688      .   S
    N72    O74       1.23664      .   S
    Zr1    O74       2.39834  1_455   S
    N75    O76       1.10901      .   S
    Zr3    O76       2.34501      .   S
    N75    O77       1.23712      .   S
    Zr4    O77       2.39881      .   S
    N78    O79       1.10902      .   S
    Zr2    O79       2.34499      .   S
    N78    O80       1.23714      .   S
    Zr5    O80       2.39883      .   S
