# CIF file generated by openbabel 2.4.90, see http://openbabel.sf.net
data_I
_chemical_name_common ''
_cell_length_a 18.067
_cell_length_b 20.611
_cell_length_c 18.888
_cell_angle_alpha 89.978
_cell_angle_beta 89.993
_cell_angle_gamma 90.027
_space_group_name_H-M_alt 'P 1'
_space_group_name_Hall 'P 1'
loop_
    _symmetry_equiv_pos_as_xyz
    x,y,z
loop_
    _atom_site_label
    _atom_site_type_symbol
    _atom_site_fract_x
    _atom_site_fract_y
    _atom_site_fract_z
    _atom_site_occupancy
    N0      N    0.72500   0.40497   0.59223   1.000
    N1      N    0.47500   0.15501   0.90777   1.000
    N2      N    0.39280   0.37788   0.79363   1.000
    N3      N    0.47504   0.59504   0.40770   1.000
    N4      N    0.89282   0.87788   0.79363   1.000
    N5      N    0.22505   0.84503   0.09204   1.000
    N6      N    0.64277   0.62215   0.20639   1.000
    N7      N    0.72501   0.90498   0.59223   1.000
    N8      N    0.97500   0.15501   0.90776   1.000
    N9      N    0.39281   0.87788   0.79363   1.000
    N10     N    0.39289   0.37212   0.29371   1.000
    N11     N    0.97504   0.09503   0.40771   1.000
    N12     N    0.14276   0.12215   0.20637   1.000
    N13     N    0.97504   0.59504   0.40771   1.000
    N14     N    0.14276   0.62215   0.20638   1.000
    N15     N    0.39289   0.87212   0.29371   1.000
    N16     N    0.72506   0.84503   0.09204   1.000
    N17     N    0.47504   0.09503   0.40771   1.000
    N18     N    0.64277   0.12215   0.20637   1.000
    N19     N    0.72506   0.34502   0.09204   1.000
    N20     N    0.89290   0.87212   0.29370   1.000
    N21     N    0.14286   0.12788   0.70627   1.000
    N22     N    0.14286   0.62789   0.70626   1.000
    N23     N    0.64287   0.62789   0.70627   1.000
    N24     N    0.89281   0.37788   0.79363   1.000
    N25     N    0.89290   0.37212   0.29368   1.000
    N26     N    0.22505   0.34502   0.09204   1.000
    N27     N    0.47500   0.65501   0.90777   1.000
    N28     N    0.22499   0.40497   0.59223   1.000
    N29     N    0.97500   0.65501   0.90777   1.000
    N30     N    0.64286   0.12788   0.70627   1.000
    N31     N    0.22500   0.90498   0.59223   1.000
    Zr32    Zr   0.49540   0.49098   0.66308   1.000
    O33     O    0.45694   0.45197   0.71070   1.000
    O34     O    0.55540   0.53966   0.66566   1.000
    O35     O    0.58162   0.46949   0.62431   1.000
    O36     O    0.49964   0.52591   0.57322   1.000
    Zr37    Zr   0.74534   0.00903   0.33688   1.000
    O38     O    0.83160   0.03052   0.37564   1.000
    O39     O    0.74959   0.97411   0.42672   1.000
    O40     O    0.80538   0.96035   0.33430   1.000
    O41     O    0.70689   0.04805   0.28927   1.000
    Zr42    Zr   0.74534   0.50903   0.33686   1.000
    O43     O    0.70689   0.54805   0.28926   1.000
    O44     O    0.83160   0.53052   0.37563   1.000
    O45     O    0.80538   0.46035   0.33428   1.000
    O46     O    0.74959   0.47410   0.42671   1.000
    Zr47    Zr   0.24532   0.74094   0.83687   1.000
    O48     O    0.33155   0.71947   0.87567   1.000
    O49     O    0.30533   0.78963   0.83427   1.000
    O50     O    0.24957   0.77588   0.92664   1.000
    O51     O    0.20691   0.70195   0.78923   1.000
    Zr52    Zr   0.74533   0.74094   0.83687   1.000
    O53     O    0.83156   0.71947   0.87567   1.000
    O54     O    0.80534   0.78963   0.83427   1.000
    O55     O    0.74958   0.77588   0.92664   1.000
    O56     O    0.70692   0.70195   0.78923   1.000
    Zr57    Zr   0.49532   0.75908   0.16311   1.000
    O58     O    0.49955   0.72414   0.07330   1.000
    O59     O    0.58157   0.78055   0.12428   1.000
    O60     O    0.55531   0.71040   0.16573   1.000
    O61     O    0.45692   0.79807   0.21075   1.000
    Zr62    Zr   0.99540   0.99098   0.66308   1.000
    O63     O    0.95695   0.95197   0.71070   1.000
    O64     O    0.99963   0.02590   0.57322   1.000
    O65     O    0.05540   0.03965   0.66565   1.000
    O66     O    0.08161   0.96950   0.62431   1.000
    Zr67    Zr   0.99540   0.49098   0.66308   1.000
    O68     O    0.95695   0.45197   0.71070   1.000
    O69     O    0.08161   0.46949   0.62431   1.000
    O70     O    0.05540   0.53966   0.66565   1.000
    O71     O    0.99963   0.52591   0.57323   1.000
    Zr72    Zr   0.24532   0.24094   0.83687   1.000
    O73     O    0.30533   0.28962   0.83427   1.000
    O74     O    0.24957   0.27587   0.92664   1.000
    O75     O    0.33155   0.21946   0.87567   1.000
    O76     O    0.20691   0.20194   0.78922   1.000
    Zr77    Zr   0.49540   0.99098   0.66305   1.000
    O78     O    0.45694   0.95197   0.71069   1.000
    O79     O    0.55540   0.03965   0.66564   1.000
    O80     O    0.49963   0.02590   0.57322   1.000
    O81     O    0.58162   0.96950   0.62430   1.000
    Zr82    Zr   0.74533   0.24093   0.83687   1.000
    O83     O    0.74958   0.27587   0.92665   1.000
    O84     O    0.80533   0.28962   0.83427   1.000
    O85     O    0.83156   0.21946   0.87567   1.000
    O86     O    0.70692   0.20194   0.78923   1.000
    Zr87    Zr   0.49532   0.25907   0.16311   1.000
    O88     O    0.55531   0.21039   0.16571   1.000
    O89     O    0.49955   0.22414   0.07330   1.000
    O90     O    0.58157   0.28055   0.12428   1.000
    O91     O    0.45692   0.29806   0.21075   1.000
    Zr92    Zr   0.24533   0.00903   0.33688   1.000
    O93     O    0.33159   0.03052   0.37564   1.000
    O94     O    0.30537   0.96035   0.33431   1.000
    O95     O    0.24958   0.97411   0.42672   1.000
    O96     O    0.20688   0.04805   0.28927   1.000
    Zr97    Zr   0.99532   0.25907   0.16311   1.000
    O98     O    0.05531   0.21039   0.16571   1.000
    O99     O    0.99955   0.22414   0.07329   1.000
    O100    O    0.08156   0.28055   0.12428   1.000
    O101    O    0.95693   0.29806   0.21075   1.000
    Zr102   Zr   0.99532   0.75908   0.16308   1.000
    O103    O    0.95693   0.79807   0.21073   1.000
    O104    O    0.99955   0.72414   0.07328   1.000
    O105    O    0.08156   0.78055   0.12426   1.000
    O106    O    0.05531   0.71040   0.16571   1.000
    Zr107   Zr   0.24533   0.50903   0.33688   1.000
    O108    O    0.24958   0.47410   0.42672   1.000
    O109    O    0.33159   0.53052   0.37564   1.000
    O110    O    0.30537   0.46035   0.33431   1.000
    O111    O    0.20688   0.54805   0.28928   1.000
loop_
    _geom_bond_atom_site_label_1
    _geom_bond_atom_site_label_2
    _geom_bond_distance
    _geom_bond_site_symmetry_2
    _ccdc_geom_bond_type
    Zr32   O33       1.39187      .   S
    N2     O33       2.47477      .   S
    Zr32   O34       1.47748      .   S
    N23    O34       2.52808      .   S
    Zr32   O35       1.77739      .   S
    N0     O35       2.97492      .   S
    Zr32   O36       1.84479      .   S
    N3     O36       3.46401      .   S
    Zr37   O38       1.77773      .   S
    N11    O38       2.97476      .   S
    Zr37   O39       1.84461  1_545   S
    N7     O39       3.46355      .   S
    Zr37   O40       1.47875  1_545   S
    N20    O40       2.52961      .   S
    Zr37   O41       1.39213      .   S
    N18    O41       2.47523      .   S
    Zr42   O43       1.39206      .   S
    N6     O43       2.47485      .   S
    Zr42   O44       1.77785      .   S
    N13    O44       2.97488      .   S
    Zr42   O45       1.47880      .   S
    N25    O45       2.52972      .   S
    Zr42   O46       1.84482      .   S
    N0     O46       3.46375      .   S
    Zr47   O48       1.77783      .   S
    N27    O48       2.97529      .   S
    Zr47   O49       1.47777      .   S
    N9     O49       2.52820      .   S
    Zr47   O50       1.84401      .   S
    N5     O50       3.46273  1_554   S
    Zr47   O51       1.39198      .   S
    N22    O51       2.47502      .   S
    Zr52   O53       1.77779      .   S
    N29    O53       2.97518      .   S
    Zr52   O54       1.47776      .   S
    N4     O54       2.52824      .   S
    Zr52   O55       1.84401      .   S
    N16    O55       3.46273  1_554   S
    Zr52   O56       1.39195      .   S
    N23    O56       2.47493      .   S
    Zr57   O58       1.84476      .   S
    N27    O58       3.46482  1_556   S
    Zr57   O59       1.77792      .   S
    N16    O59       2.97542      .   S
    Zr57   O60       1.47826      .   S
    N6     O60       2.52909      .   S
    Zr57   O61       1.39203      .   S
    N15    O61       2.47508      .   S
    Zr62   O63       1.39176      .   S
    N4     O63       2.47461      .   S
    Zr62   O64       1.84476  1_565   S
    N11    O64       3.46398      .   S
    Zr62   O65       1.47735  1_665   S
    N21    O65       2.52793      .   S
    Zr62   O66       1.77731  1_655   S
    N31    O66       2.97482      .   S
    Zr67   O68       1.39182      .   S
    N24    O68       2.47472      .   S
    Zr67   O69       1.77732  1_655   S
    N28    O69       2.97485      .   S
    Zr67   O70       1.47742  1_655   S
    N22    O70       2.52801      .   S
    Zr67   O71       1.84475      .   S
    N13    O71       3.46389      .   S
    Zr72   O73       1.47776      .   S
    N2     O73       2.52820      .   S
    Zr72   O74       1.84401      .   S
    N26    O74       3.46273  1_554   S
    Zr72   O75       1.77782      .   S
    N1     O75       2.97528      .   S
    Zr72   O76       1.39204      .   S
    N21    O76       2.47490      .   S
    Zr77   O78       1.39194      .   S
    N9     O78       2.47483      .   S
    Zr77   O79       1.47743  1_565   S
    N30    O79       2.52806      .   S
    Zr77   O80       1.84454  1_565   S
    N17    O80       3.46372      .   S
    Zr77   O81       1.77731      .   S
    N7     O81       2.97485      .   S
    Zr82   O83       1.84405      .   S
    N19    O83       3.46263  1_554   S
    Zr82   O84       1.47777      .   S
    N24    O84       2.52822      .   S
    Zr82   O85       1.77778      .   S
    N8     O85       2.97517      .   S
    Zr82   O86       1.39196      .   S
    N30    O86       2.47496      .   S
    Zr87   O88       1.47823      .   S
    N18    O88       2.52906      .   S
    Zr87   O89       1.84478      .   S
    N1     O89       3.46488  1_556   S
    Zr87   O90       1.77792      .   S
    N19    O90       2.97542      .   S
    Zr87   O91       1.39202      .   S
    N10    O91       2.47506      .   S
    Zr92   O93       1.77777      .   S
    N17    O93       2.97486      .   S
    Zr92   O94       1.47874  1_545   S
    N15    O94       2.52959      .   S
    Zr92   O95       1.84461  1_545   S
    N31    O95       3.46355      .   S
    Zr92   O96       1.39208      .   S
    N12    O96       2.47523      .   S
    Zr97   O98       1.47818  1_655   S
    N12    O98       2.52905      .   S
    Zr97   O99       1.84477      .   S
    N8     O99       3.46488  1_556   S
    Zr97   O100      1.77784  1_655   S
    N26    O100      2.97534      .   S
    Zr97   O101      1.39191      .   S
    N25    O101      2.47472      .   S
    Zr102  O103      1.39213      .   S
    N20    O103      2.47522      .   S
    Zr102  O104      1.84450      .   S
    N29    O104      3.46460  1_556   S
    Zr102  O105      1.77772  1_655   S
    N5     O105      2.97528      .   S
    Zr102  O106      1.47820  1_655   S
    N14    O106      2.52909      .   S
    Zr107  O108      1.84462      .   S
    N28    O108      3.46355      .   S
    Zr107  O109      1.77777      .   S
    N3     O109      2.97491      .   S
    Zr107  O110      1.47879      .   S
    N10    O110      2.52965      .   S
    Zr107  O111      1.39211      .   S
    N14    O111      2.47521      .   S
