# CIF file generated by openbabel 2.4.90, see http://openbabel.sf.net
data_I
_chemical_name_common ''
_cell_length_a 18.067
_cell_length_b 20.611
_cell_length_c 18.888
_cell_angle_alpha 89.978
_cell_angle_beta 89.993
_cell_angle_gamma 90.027
_space_group_name_H-M_alt 'P 1'
_space_group_name_Hall 'P 1'
loop_
    _symmetry_equiv_pos_as_xyz
    x,y,z
loop_
    _atom_site_label
    _atom_site_type_symbol
    _atom_site_fract_x
    _atom_site_fract_y
    _atom_site_fract_z
    _atom_site_occupancy
    C0      C    0.06549   0.01386   0.59845   1.000
    C1      C    0.06550   0.51387   0.59845   1.000
    C2      C    0.56550   0.01386   0.59845   1.000
    C3      C    0.56551   0.51387   0.59845   1.000
    C4      C    0.31549   0.48614   0.40148   1.000
    C5      C    0.31549   0.98615   0.40148   1.000
    C6      C    0.81550   0.48614   0.40148   1.000
    C7      C    0.81550   0.98615   0.40148   1.000
    C8      C    0.06545   0.23617   0.09852   1.000
    C9      C    0.06545   0.73618   0.09852   1.000
    C10     C    0.56546   0.23617   0.09852   1.000
    C11     C    0.56546   0.73618   0.09852   1.000
    C12     C    0.31546   0.26382   0.90148   1.000
    C13     C    0.31547   0.76383   0.90148   1.000
    C14     C    0.81547   0.26382   0.90148   1.000
    C15     C    0.81548   0.76383   0.90148   1.000
    C16     C    0.40988   0.47233   0.53340   1.000
    C17     C    0.40988   0.97234   0.53349   1.000
    C18     C    0.90988   0.47233   0.53349   1.000
    C19     C    0.90989   0.97234   0.53340   1.000
    C20     C    0.11831   0.19026   0.39223   1.000
    C21     C    0.11831   0.69027   0.39223   1.000
    C22     C    0.61832   0.19026   0.39223   1.000
    C23     C    0.61832   0.69027   0.39223   1.000
    C24     C    0.41734   0.15262   0.26264   1.000
    C25     C    0.41734   0.65263   0.26264   1.000
    C26     C    0.91735   0.15262   0.26264   1.000
    C27     C    0.91735   0.65263   0.26264   1.000
    C28     C    0.35877   0.09832   0.30900   1.000
    C29     C    0.35877   0.59832   0.30900   1.000
    C30     C    0.85878   0.09832   0.30900   1.000
    C31     C    0.85878   0.59832   0.30900   1.000
    C32     C    0.48765   0.34159   0.70758   1.000
    C33     C    0.48765   0.84160   0.70758   1.000
    C34     C    0.98766   0.34159   0.70758   1.000
    C35     C    0.98766   0.84160   0.70758   1.000
    C36     C    0.42532   0.26323   0.78953   1.000
    C37     C    0.42532   0.76324   0.78953   1.000
    C38     C    0.92533   0.26323   0.78953   1.000
    C39     C    0.92533   0.76324   0.78953   1.000
    C40     C    0.29986   0.40978   0.88048   1.000
    C41     C    0.29986   0.90979   0.88048   1.000
    C42     C    0.79987   0.40978   0.88048   1.000
    C43     C    0.79987   0.90979   0.88040   1.000
    C44     C    0.35644   0.49377   0.79987   1.000
    C45     C    0.35644   0.99377   0.79987   1.000
    C46     C    0.85645   0.49377   0.79987   1.000
    C47     C    0.85645   0.99378   0.79988   1.000
    C48     C    0.15989   0.02764   0.46646   1.000
    C49     C    0.15990   0.52764   0.46646   1.000
    C50     C    0.65990   0.02764   0.46646   1.000
    C51     C    0.65990   0.52764   0.46646   1.000
    C52     C    0.36823   0.30981   0.60768   1.000
    C53     C    0.36823   0.80982   0.60768   1.000
    C54     C    0.86824   0.30981   0.60768   1.000
    C55     C    0.86824   0.80982   0.60768   1.000
    C56     C    0.16730   0.34737   0.73734   1.000
    C57     C    0.16730   0.84738   0.73734   1.000
    C58     C    0.66731   0.34737   0.73734   1.000
    C59     C    0.66731   0.84738   0.73734   1.000
    C60     C    0.10875   0.40166   0.69100   1.000
    C61     C    0.10875   0.90167   0.69100   1.000
    C62     C    0.60876   0.40166   0.69100   1.000
    C63     C    0.60876   0.90167   0.69100   1.000
    C64     C    0.23758   0.15847   0.29246   1.000
    C65     C    0.23758   0.65847   0.29246   1.000
    C66     C    0.73759   0.15847   0.29246   1.000
    C67     C    0.73759   0.65847   0.29246   1.000
    C68     C    0.17525   0.23682   0.21050   1.000
    C69     C    0.17525   0.73683   0.21050   1.000
    C70     C    0.67526   0.23682   0.21050   1.000
    C71     C    0.67526   0.73683   0.21059   1.000
    C72     C    0.04985   0.09020   0.11951   1.000
    C73     C    0.04985   0.59021   0.11950   1.000
    C74     C    0.54986   0.09020   0.11950   1.000
    C75     C    0.54986   0.59021   0.11952   1.000
    C76     C    0.10641   0.00623   0.20007   1.000
    C77     C    0.10641   0.50624   0.20007   1.000
    C78     C    0.60641   0.00623   0.20007   1.000
    C79     C    0.60642   0.50624   0.20007   1.000
    C80     C    0.40959   0.27752   0.03367   1.000
    C81     C    0.40959   0.77753   0.03367   1.000
    C82     C    0.90960   0.27752   0.03360   1.000
    C83     C    0.90960   0.77753   0.03367   1.000
    C84     C    0.11850   0.06016   0.89249   1.000
    C85     C    0.11850   0.56017   0.89249   1.000
    C86     C    0.61851   0.06017   0.89249   1.000
    C87     C    0.61851   0.56017   0.89249   1.000
    C88     C    0.41745   0.09733   0.76285   1.000
    C89     C    0.41745   0.59733   0.76285   1.000
    C90     C    0.91746   0.09733   0.76285   1.000
    C91     C    0.91746   0.59733   0.76285   1.000
    C92     C    0.35878   0.15153   0.80915   1.000
    C93     C    0.35878   0.65154   0.80915   1.000
    C94     C    0.85879   0.15153   0.80915   1.000
    C95     C    0.85879   0.65154   0.80915   1.000
    C96     C    0.48778   0.40847   0.20768   1.000
    C97     C    0.48778   0.90848   0.20768   1.000
    C98     C    0.98779   0.40847   0.20768   1.000
    C99     C    0.98779   0.90848   0.20768   1.000
    C100    C    0.42550   0.48677   0.28959   1.000
    C101    C    0.42550   0.98678   0.28959   1.000
    C102    C    0.92550   0.48677   0.28959   1.000
    C103    C    0.92551   0.98678   0.28959   1.000
    C104    C    0.29992   0.34013   0.38057   1.000
    C105    C    0.29993   0.84014   0.38057   1.000
    C106    C    0.79993   0.34013   0.38056   1.000
    C107    C    0.79993   0.84014   0.38056   1.000
    C108    C    0.35645   0.25621   0.29997   1.000
    C109    C    0.35645   0.75622   0.29997   1.000
    C110    C    0.85646   0.25621   0.29997   1.000
    C111    C    0.85646   0.75622   0.29997   1.000
    C112    C    0.15959   0.22245   0.96635   1.000
    C113    C    0.15959   0.72245   0.96635   1.000
    C114    C    0.65960   0.22244   0.96630   1.000
    C115    C    0.65960   0.72245   0.96635   1.000
    C116    C    0.36862   0.43991   0.10744   1.000
    C117    C    0.36863   0.93991   0.10744   1.000
    C118    C    0.86863   0.43991   0.10744   1.000
    C119    C    0.86863   0.93992   0.10744   1.000
    C120    C    0.16748   0.40272   0.23710   1.000
    C121    C    0.16748   0.90273   0.23710   1.000
    C122    C    0.66748   0.40272   0.23710   1.000
    C123    C    0.66749   0.90273   0.23710   1.000
    C124    C    0.10881   0.34848   0.19079   1.000
    C125    C    0.10881   0.84849   0.19079   1.000
    C126    C    0.60881   0.34848   0.19079   1.000
    C127    C    0.60882   0.84849   0.19079   1.000
    C128    C    0.23764   0.09156   0.79236   1.000
    C129    C    0.23765   0.59156   0.79236   1.000
    C130    C    0.73766   0.09156   0.79236   1.000
    C131    C    0.73766   0.59156   0.79236   1.000
    C132    C    0.17538   0.01323   0.71041   1.000
    C133    C    0.17538   0.51324   0.71041   1.000
    C134    C    0.67539   0.01323   0.71041   1.000
    C135    C    0.67539   0.51324   0.71041   1.000
    C136    C    0.04998   0.15983   0.61937   1.000
    C137    C    0.04998   0.65983   0.61937   1.000
    C138    C    0.54998   0.15983   0.61937   1.000
    C139    C    0.54999   0.65983   0.61937   1.000
    C140    C    0.10649   0.24377   0.69999   1.000
    C141    C    0.10649   0.74378   0.69999   1.000
    C142    C    0.60650   0.24377   0.69999   1.000
    C143    C    0.60650   0.74378   0.69999   1.000
    C144    C    0.43523   0.01045   0.50198   1.000
    C145    C    0.43524   0.51046   0.50198   1.000
    C146    C    0.93524   0.01045   0.50198   1.000
    C147    C    0.93525   0.51046   0.50198   1.000
    C148    C    0.07166   0.15731   0.40038   1.000
    C149    C    0.07166   0.65732   0.40038   1.000
    C150    C    0.57167   0.15731   0.40038   1.000
    C151    C    0.57167   0.65732   0.40038   1.000
    C152    C    0.46025   0.11852   0.35542   1.000
    C153    C    0.46025   0.61853   0.35542   1.000
    C154    C    0.96026   0.11852   0.35542   1.000
    C155    C    0.96026   0.61853   0.35542   1.000
    C156    C    0.45568   0.07843   0.41623   1.000
    C157    C    0.45568   0.57844   0.41623   1.000
    C158    C    0.95569   0.07843   0.41623   1.000
    C159    C    0.95569   0.57844   0.41623   1.000
    C160    C    0.01393   0.08276   0.46540   1.000
    C161    C    0.01393   0.58277   0.46543   1.000
    C162    C    0.51394   0.08276   0.46540   1.000
    C163    C    0.51394   0.58277   0.46540   1.000
    C164    C    0.46175   0.47231   0.69829   1.000
    C165    C    0.46175   0.97232   0.69829   1.000
    C166    C    0.96176   0.47231   0.69829   1.000
    C167    C    0.96176   0.97231   0.69829   1.000
    C168    C    0.44624   0.35824   0.74522   1.000
    C169    C    0.44624   0.85825   0.74520   1.000
    C170    C    0.94625   0.35824   0.74520   1.000
    C171    C    0.94625   0.85825   0.74522   1.000
    C172    C    0.42659   0.42378   0.74777   1.000
    C173    C    0.42659   0.92378   0.74777   1.000
    C174    C    0.92660   0.42378   0.74777   1.000
    C175    C    0.92660   0.92378   0.74777   1.000
    C176    C    0.41181   0.31477   0.79051   1.000
    C177    C    0.41182   0.81478   0.79051   1.000
    C178    C    0.91182   0.31477   0.79051   1.000
    C179    C    0.91182   0.81478   0.79051   1.000
    C180    C    0.34114   0.39691   0.84087   1.000
    C181    C    0.34114   0.89692   0.84087   1.000
    C182    C    0.84115   0.39691   0.84087   1.000
    C183    C    0.84116   0.89692   0.84087   1.000
    C184    C    0.37272   0.44303   0.79654   1.000
    C185    C    0.37272   0.94303   0.79654   1.000
    C186    C    0.87273   0.44303   0.79654   1.000
    C187    C    0.87274   0.94304   0.79654   1.000
    C188    C    0.18523   0.48952   0.49797   1.000
    C189    C    0.18523   0.98953   0.49797   1.000
    C190    C    0.68524   0.48952   0.49797   1.000
    C191    C    0.68524   0.98953   0.49797   1.000
    C192    C    0.32159   0.34273   0.59954   1.000
    C193    C    0.32159   0.84274   0.59954   1.000
    C194    C    0.82160   0.34273   0.59954   1.000
    C195    C    0.82160   0.84274   0.59954   1.000
    C196    C    0.21020   0.38149   0.64454   1.000
    C197    C    0.21020   0.88150   0.64454   1.000
    C198    C    0.71021   0.38149   0.64454   1.000
    C199    C    0.71021   0.88150   0.64454   1.000
    C200    C    0.20564   0.42157   0.58373   1.000
    C201    C    0.20564   0.92158   0.58373   1.000
    C202    C    0.70565   0.42157   0.58373   1.000
    C203    C    0.70565   0.92158   0.58373   1.000
    C204    C    0.26387   0.41724   0.53449   1.000
    C205    C    0.26388   0.91725   0.53449   1.000
    C206    C    0.76388   0.41724   0.53449   1.000
    C207    C    0.76389   0.91725   0.53449   1.000
    C208    C    0.21167   0.02771   0.30169   1.000
    C209    C    0.21167   0.52771   0.30169   1.000
    C210    C    0.71168   0.02771   0.30169   1.000
    C211    C    0.71168   0.52771   0.30160   1.000
    C212    C    0.19618   0.14180   0.25482   1.000
    C213    C    0.19618   0.64181   0.25482   1.000
    C214    C    0.69619   0.14180   0.25482   1.000
    C215    C    0.69619   0.64181   0.25482   1.000
    C216    C    0.17654   0.07625   0.25223   1.000
    C217    C    0.17655   0.57625   0.25222   1.000
    C218    C    0.67655   0.07625   0.25220   1.000
    C219    C    0.67656   0.57625   0.25222   1.000
    C220    C    0.16175   0.18527   0.20956   1.000
    C221    C    0.16175   0.68527   0.20956   1.000
    C222    C    0.66176   0.18527   0.20956   1.000
    C223    C    0.66176   0.68527   0.20956   1.000
    C224    C    0.09112   0.10309   0.15914   1.000
    C225    C    0.09112   0.60310   0.15914   1.000
    C226    C    0.59112   0.10309   0.15914   1.000
    C227    C    0.59112   0.60310   0.15914   1.000
    C228    C    0.12269   0.05698   0.20344   1.000
    C229    C    0.12269   0.55699   0.20344   1.000
    C230    C    0.62270   0.05698   0.20344   1.000
    C231    C    0.62270   0.55699   0.20344   1.000
    C232    C    0.43501   0.23945   0.00000   1.000
    C233    C    0.43501   0.73946   0.00000   1.000
    C234    C    0.93502   0.23945   0.00000   1.000
    C235    C    0.93502   0.73946   0.00000   1.000
    C236    C    0.07174   0.09296   0.90060   1.000
    C237    C    0.07175   0.59297   0.90063   1.000
    C238    C    0.57175   0.09296   0.90063   1.000
    C239    C    0.57176   0.59297   0.90063   1.000
    C240    C    0.46027   0.13151   0.85563   1.000
    C241    C    0.46027   0.63151   0.85563   1.000
    C242    C    0.96028   0.13150   0.85563   1.000
    C243    C    0.96028   0.63151   0.85563   1.000
    C244    C    0.45560   0.17158   0.91641   1.000
    C245    C    0.45560   0.67158   0.91641   1.000
    C246    C    0.95561   0.17158   0.91641   1.000
    C247    C    0.95561   0.67158   0.91641   1.000
    C248    C    0.01380   0.16731   0.96566   1.000
    C249    C    0.01381   0.66732   0.96566   1.000
    C250    C    0.51381   0.16731   0.96566   1.000
    C251    C    0.51382   0.66732   0.96566   1.000
    C252    C    0.46169   0.27774   0.19832   1.000
    C253    C    0.46169   0.77775   0.19832   1.000
    C254    C    0.96170   0.27774   0.19833   1.000
    C255    C    0.96170   0.77775   0.19830   1.000
    C256    C    0.44634   0.39179   0.24530   1.000
    C257    C    0.44634   0.89180   0.24530   1.000
    C258    C    0.94635   0.39179   0.24500   1.000
    C259    C    0.94635   0.89180   0.24530   1.000
    C260    C    0.42663   0.32625   0.24784   1.000
    C261    C    0.42663   0.82626   0.24784   1.000
    C262    C    0.92665   0.32625   0.24785   1.000
    C263    C    0.92665   0.82626   0.24784   1.000
    C264    C    0.41194   0.43522   0.29058   1.000
    C265    C    0.41194   0.93523   0.29058   1.000
    C266    C    0.91195   0.43523   0.29058   1.000
    C267    C    0.91195   0.93523   0.29058   1.000
    C268    C    0.34121   0.35304   0.34095   1.000
    C269    C    0.34121   0.85305   0.34095   1.000
    C270    C    0.84122   0.35305   0.34090   1.000
    C271    C    0.84122   0.85305   0.34090   1.000
    C272    C    0.37276   0.30696   0.29660   1.000
    C273    C    0.37276   0.80697   0.29663   1.000
    C274    C    0.87276   0.30696   0.29662   1.000
    C275    C    0.87277   0.80697   0.29662   1.000
    C276    C    0.18503   0.26053   0.99785   1.000
    C277    C    0.18503   0.76054   0.99785   1.000
    C278    C    0.68504   0.26053   0.99785   1.000
    C279    C    0.68504   0.76054   0.99785   1.000
    C280    C    0.32185   0.40709   0.09931   1.000
    C281    C    0.32185   0.90710   0.09931   1.000
    C282    C    0.82186   0.40709   0.09931   1.000
    C283    C    0.82186   0.90710   0.09931   1.000
    C284    C    0.21032   0.36853   0.14433   1.000
    C285    C    0.21033   0.86854   0.14433   1.000
    C286    C    0.71033   0.36853   0.14433   1.000
    C287    C    0.71034   0.86854   0.14433   1.000
    C288    C    0.20564   0.32844   0.08356   1.000
    C289    C    0.20565   0.82845   0.08356   1.000
    C290    C    0.70565   0.32844   0.08356   1.000
    C291    C    0.70565   0.82845   0.08356   1.000
    C292    C    0.26388   0.33271   0.03432   1.000
    C293    C    0.26388   0.83271   0.03432   1.000
    C294    C    0.76389   0.33271   0.03432   1.000
    C295    C    0.76389   0.83271   0.03432   1.000
    C296    C    0.21167   0.22227   0.80166   1.000
    C297    C    0.21168   0.72228   0.80166   1.000
    C298    C    0.71169   0.22227   0.80166   1.000
    C299    C    0.71168   0.72228   0.80166   1.000
    C300    C    0.19626   0.10822   0.75471   1.000
    C301    C    0.19626   0.60822   0.75471   1.000
    C302    C    0.69626   0.10822   0.75471   1.000
    C303    C    0.69627   0.60823   0.75470   1.000
    C304    C    0.17660   0.17375   0.75210   1.000
    C305    C    0.17661   0.67376   0.75214   1.000
    C306    C    0.67662   0.17376   0.75214   1.000
    C307    C    0.67661   0.67376   0.75215   1.000
    C308    C    0.16186   0.06477   0.70941   1.000
    C309    C    0.16187   0.56478   0.70941   1.000
    C310    C    0.66187   0.06477   0.70941   1.000
    C311    C    0.66188   0.56478   0.70941   1.000
    C312    C    0.09123   0.14693   0.65901   1.000
    C313    C    0.09123   0.64694   0.65901   1.000
    C314    C    0.59123   0.14693   0.65901   1.000
    C315    C    0.59124   0.64694   0.65901   1.000
    C316    C    0.12278   0.19303   0.70334   1.000
    C317    C    0.12277   0.69304   0.70330   1.000
    C318    C    0.62277   0.19303   0.70335   1.000
    C319    C    0.62279   0.69304   0.70334   1.000
    C320    C    0.99989   0.03937   0.51963   1.000
    C321    C    0.99989   0.53938   0.51963   1.000
    C322    C    0.49989   0.03937   0.51963   1.000
    C323    C    0.49990   0.53938   0.51963   1.000
    C324    C    0.07364   0.12176   0.45989   1.000
    C325    C    0.07364   0.62177   0.45989   1.000
    C326    C    0.57365   0.12176   0.45989   1.000
    C327    C    0.57365   0.62177   0.45989   1.000
    C328    C    0.40582   0.03177   0.44068   1.000
    C329    C    0.40582   0.53178   0.44068   1.000
    C330    C    0.90583   0.03177   0.44068   1.000
    C331    C    0.90583   0.53178   0.44068   1.000
    C332    C    0.02005   0.15796   0.34914   1.000
    C333    C    0.02005   0.65797   0.34914   1.000
    C334    C    0.52006   0.15796   0.34914   1.000
    C335    C    0.52006   0.65797   0.34914   1.000
    C336    C    0.41003   0.11858   0.30185   1.000
    C337    C    0.41004   0.61859   0.30185   1.000
    C338    C    0.91004   0.11858   0.30185   1.000
    C339    C    0.91004   0.61859   0.30185   1.000
    C340    C    0.36027   0.33367   0.83795   1.000
    C341    C    0.36027   0.83368   0.83795   1.000
    C342    C    0.86028   0.33367   0.83795   1.000
    C343    C    0.86028   0.83368   0.83795   1.000
    C344    C    0.24985   0.46061   0.48029   1.000
    C345    C    0.24986   0.96062   0.48029   1.000
    C346    C    0.74986   0.46061   0.48029   1.000
    C347    C    0.74986   0.96062   0.48029   1.000
    C348    C    0.32357   0.37826   0.54001   1.000
    C349    C    0.32357   0.87827   0.54001   1.000
    C350    C    0.82358   0.37826   0.54001   1.000
    C351    C    0.82358   0.87827   0.54001   1.000
    C352    C    0.15581   0.46822   0.55929   1.000
    C353    C    0.15581   0.96822   0.55929   1.000
    C354    C    0.65582   0.46822   0.55929   1.000
    C355    C    0.65582   0.96822   0.55929   1.000
    C356    C    0.26999   0.34208   0.65080   1.000
    C357    C    0.26999   0.84209   0.65080   1.000
    C358    C    0.77000   0.34208   0.65080   1.000
    C359    C    0.77000   0.84208   0.65080   1.000
    C360    C    0.16000   0.38141   0.69813   1.000
    C361    C    0.16000   0.88142   0.69813   1.000
    C362    C    0.66001   0.38141   0.69813   1.000
    C363    C    0.66001   0.88142   0.69813   1.000
    C364    C    0.11023   0.16635   0.16200   1.000
    C365    C    0.11023   0.66636   0.16209   1.000
    C366    C    0.61023   0.16635   0.16200   1.000
    C367    C    0.61024   0.66636   0.16209   1.000
    C368    C    0.99967   0.21062   0.01987   1.000
    C369    C    0.99967   0.71063   0.01987   1.000
    C370    C    0.49968   0.21062   0.01987   1.000
    C371    C    0.49968   0.71063   0.01987   1.000
    C372    C    0.07360   0.12845   0.96017   1.000
    C373    C    0.07360   0.62845   0.96010   1.000
    C374    C    0.57361   0.12845   0.96010   1.000
    C375    C    0.57361   0.62845   0.96016   1.000
    C376    C    0.40567   0.21814   0.94083   1.000
    C377    C    0.40567   0.71814   0.94083   1.000
    C378    C    0.90568   0.21814   0.94083   1.000
    C379    C    0.90568   0.71814   0.94083   1.000
    C380    C    0.02016   0.09222   0.84937   1.000
    C381    C    0.02016   0.59223   0.84937   1.000
    C382    C    0.52017   0.09222   0.84937   1.000
    C383    C    0.52017   0.59223   0.84937   1.000
    C384    C    0.41005   0.13130   0.80207   1.000
    C385    C    0.41005   0.63131   0.80207   1.000
    C386    C    0.91006   0.13130   0.80207   1.000
    C387    C    0.91006   0.63131   0.80207   1.000
    C388    C    0.36036   0.41630   0.33801   1.000
    C389    C    0.36036   0.91631   0.33801   1.000
    C390    C    0.86037   0.41630   0.33800   1.000
    C391    C    0.86037   0.91631   0.33801   1.000
    C392    C    0.24972   0.28937   0.98010   1.000
    C393    C    0.24972   0.78938   0.98010   1.000
    C394    C    0.74973   0.28937   0.98013   1.000
    C395    C    0.74973   0.78938   0.98010   1.000
    C396    C    0.32370   0.37159   0.03979   1.000
    C397    C    0.32370   0.87160   0.03979   1.000
    C398    C    0.82371   0.37159   0.03979   1.000
    C399    C    0.82371   0.87160   0.03979   1.000
    C400    C    0.15569   0.28186   0.05917   1.000
    C401    C    0.15569   0.78187   0.05917   1.000
    C402    C    0.65570   0.28186   0.05917   1.000
    C403    C    0.65570   0.78187   0.05917   1.000
    C404    C    0.27025   0.40784   0.15057   1.000
    C405    C    0.27026   0.90784   0.15057   1.000
    C406    C    0.77026   0.40784   0.15057   1.000
    C407    C    0.77026   0.90784   0.15057   1.000
    C408    C    0.16008   0.36873   0.19788   1.000
    C409    C    0.16009   0.86874   0.19788   1.000
    C410    C    0.66009   0.36873   0.19788   1.000
    C411    C    0.66009   0.86874   0.19788   1.000
    C412    C    0.11034   0.08369   0.66195   1.000
    C413    C    0.11035   0.58370   0.66190   1.000
    C414    C    0.61036   0.08369   0.66194   1.000
    C415    C    0.61035   0.58370   0.66195   1.000
    C416    C    0.01890   0.45004   0.66379   1.000
    C417    C    0.01890   0.95005   0.66379   1.000
    C418    C    0.51891   0.45004   0.66379   1.000
    C419    C    0.51891   0.95004   0.66370   1.000
    C420    C    0.43544   0.02771   0.69178   1.000
    C421    C    0.43545   0.52772   0.69178   1.000
    C422    C    0.93545   0.02771   0.69178   1.000
    C423    C    0.93545   0.52772   0.69178   1.000
    C424    C    0.26888   0.04995   0.33616   1.000
    C425    C    0.26888   0.54996   0.33616   1.000
    C426    C    0.76889   0.04995   0.33616   1.000
    C427    C    0.76889   0.54996   0.33616   1.000
    C428    C    0.18528   0.47232   0.30821   1.000
    C429    C    0.18528   0.97232   0.30820   1.000
    C430    C    0.68528   0.47232   0.30821   1.000
    C431    C    0.68529   0.97232   0.30820   1.000
    C432    C    0.01890   0.29999   0.16384   1.000
    C433    C    0.01890   0.80000   0.16380   1.000
    C434    C    0.51891   0.29999   0.16385   1.000
    C435    C    0.51892   0.79999   0.16385   1.000
    C436    C    0.43521   0.22238   0.19176   1.000
    C437    C    0.43521   0.72239   0.19176   1.000
    C438    C    0.93522   0.22239   0.19175   1.000
    C439    C    0.93522   0.72239   0.19170   1.000
    C440    C    0.26889   0.20004   0.83612   1.000
    C441    C    0.26889   0.70004   0.83612   1.000
    C442    C    0.76889   0.20003   0.83613   1.000
    C443    C    0.76890   0.70004   0.83612   1.000
    C444    C    0.18524   0.27762   0.80823   1.000
    C445    C    0.18524   0.77763   0.80823   1.000
    C446    C    0.68525   0.27762   0.80823   1.000
    C447    C    0.68526   0.77763   0.80823   1.000
    O448    O    0.96735   0.72504   0.00993   1.000
    O449    O    0.92231   0.75849   0.01683   1.000
    O450    O    0.92035   0.72880   0.97041   1.000
    O451    O    0.96734   0.22504   0.00993   1.000
    O452    O    0.92231   0.25849   0.01680   1.000
    O453    O    0.92035   0.22879   0.97041   1.000
    O454    O    0.46735   0.72504   0.00993   1.000
    O455    O    0.42230   0.75849   0.01683   1.000
    O456    O    0.42034   0.72880   0.97041   1.000
    O457    O    0.46734   0.22503   0.00993   1.000
    O458    O    0.42230   0.25848   0.01683   1.000
    O459    O    0.42034   0.22879   0.97041   1.000
    O460    O    0.03256   0.22340   0.05919   1.000
    O461    O    0.00674   0.18896   0.99277   1.000
    O462    O    0.03256   0.72340   0.05919   1.000
    O463    O    0.00674   0.68897   0.99277   1.000
    O464    O    0.53257   0.22340   0.05919   1.000
    O465    O    0.50675   0.18897   0.99277   1.000
    O466    O    0.53257   0.72340   0.05919   1.000
    O467    O    0.50675   0.68897   0.99277   1.000
    O468    O    0.29379   0.35215   0.03705   1.000
    O469    O    0.23476   0.33057   0.05894   1.000
    O470    O    0.25680   0.31104   0.00721   1.000
    O471    O    0.29379   0.85215   0.03705   1.000
    O472    O    0.23476   0.83058   0.05894   1.000
    O473    O    0.25680   0.81105   0.00721   1.000
    O474    O    0.79380   0.35215   0.03705   1.000
    O475    O    0.73477   0.33057   0.05894   1.000
    O476    O    0.75681   0.31104   0.00722   1.000
    O477    O    0.79380   0.85215   0.03705   1.000
    O478    O    0.73477   0.83058   0.05894   1.000
    O479    O    0.75681   0.81105   0.00721   1.000
    O480    O    0.32277   0.38934   0.06955   1.000
    O481    O    0.32277   0.88935   0.06955   1.000
    O482    O    0.82278   0.38934   0.06955   1.000
    O483    O    0.82278   0.88935   0.06955   1.000
    O484    O    0.18067   0.80516   0.07136   1.000
    O485    O    0.11057   0.75903   0.07884   1.000
    O486    O    0.17036   0.77120   0.02851   1.000
    O487    O    0.68067   0.30515   0.07136   1.000
    O488    O    0.61058   0.25902   0.07884   1.000
    O489    O    0.67037   0.27120   0.02851   1.000
    O490    O    0.68068   0.80516   0.07136   1.000
    O491    O    0.61058   0.75903   0.07884   1.000
    O492    O    0.67037   0.77120   0.02851   1.000
    O493    O    0.18067   0.30515   0.07136   1.000
    O494    O    0.11057   0.25902   0.07884   1.000
    O495    O    0.17036   0.27120   0.02851   1.000
    O496    O    0.20798   0.34849   0.11394   1.000
    O497    O    0.20799   0.84849   0.11394   1.000
    O498    O    0.70799   0.34849   0.11394   1.000
    O499    O    0.70799   0.84849   0.11394   1.000
    O500    O    0.08784   0.70127   0.13031   1.000
    O501    O    0.04218   0.76809   0.13116   1.000
    O502    O    0.58785   0.70127   0.13031   1.000
    O503    O    0.54219   0.76809   0.13118   1.000
    O504    O    0.58785   0.20126   0.13026   1.000
    O505    O    0.54218   0.26808   0.13118   1.000
    O506    O    0.08784   0.20126   0.13026   1.000
    O507    O    0.04217   0.26808   0.13118   1.000
    O508    O    0.84525   0.92351   0.10337   1.000
    O509    O    0.79606   0.90747   0.12494   1.000
    O510    O    0.84525   0.42350   0.10337   1.000
    O511    O    0.79606   0.40746   0.12494   1.000
    O512    O    0.34524   0.92351   0.10337   1.000
    O513    O    0.29605   0.90747   0.12494   1.000
    O514    O    0.34524   0.42350   0.10337   1.000
    O515    O    0.29605   0.40746   0.12494   1.000
    O516    O    0.57049   0.09665   0.13932   1.000
    O517    O    0.07048   0.59666   0.13932   1.000
    O518    O    0.07048   0.09665   0.13933   1.000
    O519    O    0.57049   0.59666   0.13933   1.000
    O520    O    0.24029   0.38818   0.14745   1.000
    O521    O    0.18520   0.36863   0.17111   1.000
    O522    O    0.74030   0.88819   0.14745   1.000
    O523    O    0.68521   0.86864   0.17111   1.000
    O524    O    0.74030   0.38818   0.14745   1.000
    O525    O    0.68521   0.36863   0.17111   1.000
    O526    O    0.24029   0.88819   0.14745   1.000
    O527    O    0.18521   0.86864   0.17111   1.000
    O528    O    0.60068   0.63473   0.16061   1.000
    O529    O    0.60691   0.58005   0.18129   1.000
    O530    O    0.60068   0.13472   0.16057   1.000
    O531    O    0.60691   0.08004   0.18129   1.000
    O532    O    0.10067   0.63473   0.16061   1.000
    O533    O    0.10690   0.58004   0.18129   1.000
    O534    O    0.10067   0.13472   0.16057   1.000
    O535    O    0.10690   0.08004   0.18129   1.000
    O536    O    0.63600   0.17581   0.18578   1.000
    O537    O    0.13599   0.17581   0.18578   1.000
    O538    O    0.63600   0.67582   0.18583   1.000
    O539    O    0.13599   0.67582   0.18583   1.000
    O540    O    0.99030   0.78887   0.18105   1.000
    O541    O    0.99030   0.28887   0.18109   1.000
    O542    O    0.49030   0.28886   0.18108   1.000
    O543    O    0.49030   0.78887   0.18108   1.000
    O544    O    0.63446   0.85862   0.19434   1.000
    O545    O    0.63445   0.35861   0.19434   1.000
    O546    O    0.13445   0.85862   0.19434   1.000
    O547    O    0.13444   0.35861   0.19434   1.000
    O548    O    0.94846   0.75007   0.19500   1.000
    O549    O    0.94846   0.25006   0.19504   1.000
    O550    O    0.44845   0.75007   0.19504   1.000
    O551    O    0.44845   0.25006   0.19504   1.000
    O552    O    0.66379   0.88573   0.21749   1.000
    O553    O    0.66379   0.38573   0.21749   1.000
    O554    O    0.16378   0.88573   0.21749   1.000
    O555    O    0.16378   0.38573   0.21749   1.000
    O556    O    0.94417   0.80200   0.22307   1.000
    O557    O    0.44416   0.30200   0.22308   1.000
    O558    O    0.44416   0.80200   0.22308   1.000
    O559    O    0.94417   0.30200   0.22309   1.000
    O560    O    0.11455   0.03160   0.20175   1.000
    O561    O    0.11455   0.53161   0.20175   1.000
    O562    O    0.61456   0.03160   0.20175   1.000
    O563    O    0.61456   0.53161   0.20175   1.000
    O564    O    0.14962   0.06661   0.22784   1.000
    O565    O    0.14962   0.56662   0.22783   1.000
    O566    O    0.64963   0.06661   0.22782   1.000
    O567    O    0.64963   0.56662   0.22783   1.000
    O568    O    0.96707   0.90014   0.22649   1.000
    O569    O    0.96707   0.40013   0.22634   1.000
    O570    O    0.46706   0.90014   0.22649   1.000
    O571    O    0.46706   0.40013   0.22649   1.000
    O572    O    0.66851   0.71105   0.21008   1.000
    O573    O    0.67897   0.66354   0.23219   1.000
    O574    O    0.66851   0.21104   0.21003   1.000
    O575    O    0.67897   0.16354   0.23219   1.000
    O576    O    0.16850   0.71105   0.21003   1.000
    O577    O    0.17897   0.66354   0.23219   1.000
    O578    O    0.16850   0.21104   0.21003   1.000
    O579    O    0.17896   0.16354   0.23219   1.000
    O580    O    0.93650   0.35902   0.24642   1.000
    O581    O    0.92915   0.41351   0.26779   1.000
    O582    O    0.93650   0.85903   0.24657   1.000
    O583    O    0.92915   0.91352   0.26794   1.000
    O584    O    0.43649   0.85903   0.24657   1.000
    O585    O    0.42914   0.91352   0.26794   1.000
    O586    O    0.43649   0.35902   0.24657   1.000
    O587    O    0.42914   0.41351   0.26794   1.000
    O588    O    0.39970   0.31661   0.27222   1.000
    O589    O    0.39970   0.81661   0.27224   1.000
    O590    O    0.89971   0.81661   0.27223   1.000
    O591    O    0.89971   0.31660   0.27224   1.000
    O592    O    0.68637   0.10902   0.25351   1.000
    O593    O    0.69412   0.05198   0.27694   1.000
    O594    O    0.68637   0.60903   0.25352   1.000
    O595    O    0.69412   0.55198   0.27691   1.000
    O596    O    0.18636   0.60903   0.25352   1.000
    O597    O    0.19411   0.55198   0.27696   1.000
    O598    O    0.18636   0.10903   0.25353   1.000
    O599    O    0.19411   0.05198   0.27696   1.000
    O600    O    0.21688   0.65014   0.27364   1.000
    O601    O    0.71689   0.65014   0.27364   1.000
    O602    O    0.71689   0.15013   0.27364   1.000
    O603    O    0.21688   0.15013   0.27364   1.000
    O604    O    0.91370   0.63561   0.28224   1.000
    O605    O    0.41369   0.13560   0.28224   1.000
    O606    O    0.41369   0.63561   0.28224   1.000
    O607    O    0.91370   0.13560   0.28224   1.000
    O608    O    0.91873   0.96101   0.29009   1.000
    O609    O    0.91873   0.46100   0.29009   1.000
    O610    O    0.41872   0.96101   0.29009   1.000
    O611    O    0.41872   0.46100   0.29009   1.000
    O612    O    0.88616   0.42576   0.31429   1.000
    O613    O    0.88616   0.92577   0.31429   1.000
    O614    O    0.38615   0.92577   0.31429   1.000
    O615    O    0.38615   0.42576   0.31429   1.000
    O616    O    0.36460   0.28159   0.29828   1.000
    O617    O    0.35698   0.33000   0.31877   1.000
    O618    O    0.86461   0.78159   0.29830   1.000
    O619    O    0.85699   0.83001   0.31876   1.000
    O620    O    0.86461   0.28159   0.29830   1.000
    O621    O    0.85699   0.33000   0.31876   1.000
    O622    O    0.36461   0.78159   0.29830   1.000
    O623    O    0.35699   0.83001   0.31879   1.000
    O624    O    0.69848   0.50001   0.30490   1.000
    O625    O    0.74029   0.53884   0.31888   1.000
    O626    O    0.69848   0.00001   0.30494   1.000
    O627    O    0.74028   0.03883   0.31893   1.000
    O628    O    0.19847   0.50001   0.30495   1.000
    O629    O    0.24028   0.53884   0.31893   1.000
    O630    O    0.19847   0.00001   0.30494   1.000
    O631    O    0.24027   0.03883   0.31893   1.000
    O632    O    0.38440   0.10845   0.30543   1.000
    O633    O    0.43514   0.11855   0.32864   1.000
    O634    O    0.38440   0.60846   0.30543   1.000
    O635    O    0.43514   0.61856   0.32864   1.000
    O636    O    0.88441   0.10845   0.30543   1.000
    O637    O    0.93515   0.11855   0.32864   1.000
    O638    O    0.88441   0.60846   0.30543   1.000
    O639    O    0.93515   0.61856   0.32864   1.000
    O640    O    0.79219   0.51805   0.36882   1.000
    O641    O    0.79220   0.01805   0.36882   1.000
    O642    O    0.29219   0.51805   0.36882   1.000
    O643    O    0.29219   0.01805   0.36882   1.000
    O644    O    0.85079   0.38467   0.33945   1.000
    O645    O    0.83793   0.45122   0.36974   1.000
    O646    O    0.35078   0.88468   0.33948   1.000
    O647    O    0.33793   0.95123   0.36974   1.000
    O648    O    0.85079   0.88468   0.33945   1.000
    O649    O    0.83794   0.95123   0.36974   1.000
    O650    O    0.35078   0.38467   0.33948   1.000
    O651    O    0.33792   0.45122   0.36974   1.000
    O652    O    0.82057   0.34659   0.36073   1.000
    O653    O    0.82058   0.84660   0.36073   1.000
    O654    O    0.32057   0.34659   0.36076   1.000
    O655    O    0.32057   0.84659   0.36076   1.000
    O656    O    0.99015   0.63825   0.35228   1.000
    O657    O    0.04585   0.65764   0.37476   1.000
    O658    O    0.49015   0.13824   0.35228   1.000
    O659    O    0.54586   0.15764   0.37476   1.000
    O660    O    0.49015   0.63825   0.35228   1.000
    O661    O    0.54586   0.65765   0.37476   1.000
    O662    O    0.99015   0.13824   0.35228   1.000
    O663    O    0.04585   0.15764   0.37476   1.000
    O664    O    0.45796   0.09848   0.38582   1.000
    O665    O    0.95797   0.59848   0.38582   1.000
    O666    O    0.95797   0.09848   0.38582   1.000
    O667    O    0.45796   0.59848   0.38582   1.000
    O668    O    0.59499   0.67379   0.39631   1.000
    O669    O    0.59499   0.17379   0.39631   1.000
    O670    O    0.09499   0.67379   0.39631   1.000
    O671    O    0.09498   0.17379   0.39631   1.000
    O672    O    0.07265   0.63954   0.43014   1.000
    O673    O    0.57266   0.13954   0.43014   1.000
    O674    O    0.57266   0.63954   0.43014   1.000
    O675    O    0.07265   0.13954   0.43014   1.000
    O676    O    0.86067   0.50896   0.42108   1.000
    O677    O    0.78268   0.47338   0.44088   1.000
    O678    O    0.86067   0.00896   0.42108   1.000
    O679    O    0.78268   0.97339   0.44088   1.000
    O680    O    0.36066   0.00896   0.42108   1.000
    O681    O    0.28267   0.97339   0.44088   1.000
    O682    O    0.36066   0.50896   0.42108   1.000
    O683    O    0.28267   0.47338   0.44088   1.000
    O684    O    0.43075   0.05510   0.42846   1.000
    O685    O    0.48481   0.08060   0.44081   1.000
    O686    O    0.43075   0.55511   0.42846   1.000
    O687    O    0.48481   0.58060   0.44081   1.000
    O688    O    0.93076   0.05510   0.42846   1.000
    O689    O    0.98481   0.08060   0.44081   1.000
    O690    O    0.93076   0.55511   0.42846   1.000
    O691    O    0.98481   0.58060   0.44083   1.000
    O692    O    0.42053   0.02111   0.47133   1.000
    O693    O    0.42053   0.52112   0.47133   1.000
    O694    O    0.92054   0.02111   0.47133   1.000
    O695    O    0.92054   0.52112   0.47133   1.000
    O696    O    0.04379   0.60227   0.46266   1.000
    O697    O    0.54380   0.60227   0.46264   1.000
    O698    O    0.54379   0.10226   0.46264   1.000
    O699    O    0.04378   0.10226   0.46264   1.000
    O700    O    0.50691   0.06107   0.49252   1.000
    O701    O    0.50692   0.56107   0.49252   1.000
    O702    O    0.00691   0.06107   0.49252   1.000
    O703    O    0.00691   0.56107   0.49253   1.000
    O704    O    0.17256   0.50858   0.48222   1.000
    O705    O    0.67257   0.50858   0.48222   1.000
    O706    O    0.67257   0.00858   0.48222   1.000
    O707    O    0.17256   0.00858   0.48222   1.000
    O708    O    0.71755   0.47507   0.48913   1.000
    O709    O    0.75687   0.43893   0.50739   1.000
    O710    O    0.21754   0.97507   0.48913   1.000
    O711    O    0.25687   0.93893   0.50739   1.000
    O712    O    0.21754   0.47507   0.48913   1.000
    O713    O    0.25686   0.43893   0.50739   1.000
    O714    O    0.71755   0.97507   0.48913   1.000
    O715    O    0.75687   0.93893   0.50739   1.000
    O716    O    0.17052   0.47887   0.52863   1.000
    O717    O    0.17052   0.97888   0.52863   1.000
    O718    O    0.67053   0.47887   0.52863   1.000
    O719    O    0.67053   0.97888   0.52863   1.000
    O720    O    0.46756   0.02491   0.51081   1.000
    O721    O    0.42256   0.99140   0.51774   1.000
    O722    O    0.46757   0.52492   0.51081   1.000
    O723    O    0.42256   0.49140   0.51769   1.000
    O724    O    0.96756   0.02491   0.51081   1.000
    O725    O    0.92257   0.99140   0.51769   1.000
    O726    O    0.96757   0.52492   0.51081   1.000
    O727    O    0.92256   0.49140   0.51774   1.000
    O728    O    0.53270   0.52662   0.55904   1.000
    O729    O    0.03269   0.52662   0.55904   1.000
    O730    O    0.53270   0.02662   0.55904   1.000
    O731    O    0.03269   0.02662   0.55904   1.000
    O732    O    0.79373   0.39775   0.53725   1.000
    O733    O    0.73476   0.41941   0.55911   1.000
    O734    O    0.79373   0.89776   0.53725   1.000
    O735    O    0.73477   0.91941   0.55911   1.000
    O736    O    0.29372   0.89776   0.53725   1.000
    O737    O    0.23476   0.91941   0.55911   1.000
    O738    O    0.29372   0.39775   0.53725   1.000
    O739    O    0.23476   0.41941   0.55911   1.000
    O740    O    0.32258   0.36050   0.56978   1.000
    O741    O    0.32258   0.86050   0.56978   1.000
    O742    O    0.82259   0.36050   0.56978   1.000
    O743    O    0.82259   0.86050   0.56978   1.000
    O744    O    0.18072   0.44490   0.57151   1.000
    O745    O    0.11065   0.49104   0.57887   1.000
    O746    O    0.18073   0.94490   0.57151   1.000
    O747    O    0.11065   0.99104   0.57887   1.000
    O748    O    0.68074   0.94490   0.57151   1.000
    O749    O    0.61066   0.99104   0.57887   1.000
    O750    O    0.68073   0.44489   0.57151   1.000
    O751    O    0.61066   0.49104   0.57887   1.000
    O752    O    0.70793   0.90154   0.61413   1.000
    O753    O    0.70793   0.40153   0.61413   1.000
    O754    O    0.20792   0.90154   0.61413   1.000
    O755    O    0.20792   0.40153   0.61413   1.000
    O756    O    0.08792   0.54878   0.63017   1.000
    O757    O    0.04220   0.48195   0.63112   1.000
    O758    O    0.58793   0.54878   0.63020   1.000
    O759    O    0.54221   0.48195   0.63112   1.000
    O760    O    0.58793   0.04877   0.63019   1.000
    O761    O    0.54221   0.98195   0.63107   1.000
    O762    O    0.08792   0.04877   0.63020   1.000
    O763    O    0.04220   0.98195   0.63112   1.000
    O764    O    0.34491   0.32627   0.60361   1.000
    O765    O    0.29579   0.34241   0.62517   1.000
    O766    O    0.34491   0.82628   0.60361   1.000
    O767    O    0.29579   0.84241   0.62517   1.000
    O768    O    0.84492   0.32627   0.60361   1.000
    O769    O    0.79580   0.34241   0.62517   1.000
    O770    O    0.84492   0.82628   0.60361   1.000
    O771    O    0.79580   0.84241   0.62517   1.000
    O772    O    0.07061   0.65339   0.63919   1.000
    O773    O    0.57061   0.15338   0.63919   1.000
    O774    O    0.57062   0.65339   0.63919   1.000
    O775    O    0.07061   0.15338   0.63919   1.000
    O776    O    0.74011   0.36179   0.64767   1.000
    O777    O    0.68511   0.38145   0.67134   1.000
    O778    O    0.24010   0.36179   0.64767   1.000
    O779    O    0.18510   0.38145   0.67134   1.000
    O780    O    0.24010   0.86179   0.64767   1.000
    O781    O    0.18510   0.88146   0.67134   1.000
    O782    O    0.74011   0.86179   0.64767   1.000
    O783    O    0.68511   0.88146   0.67134   1.000
    O784    O    0.60080   0.61532   0.66048   1.000
    O785    O    0.60701   0.66999   0.68117   1.000
    O786    O    0.60080   0.11531   0.66047   1.000
    O787    O    0.60700   0.16998   0.68118   1.000
    O788    O    0.10079   0.61532   0.66046   1.000
    O789    O    0.10700   0.66999   0.68115   1.000
    O790    O    0.10079   0.11531   0.66048   1.000
    O791    O    0.10700   0.16998   0.68117   1.000
    O792    O    0.13611   0.57424   0.68566   1.000
    O793    O    0.63611   0.07423   0.68567   1.000
    O794    O    0.63611   0.57424   0.68568   1.000
    O795    O    0.13610   0.07423   0.68568   1.000
    O796    O    0.49033   0.96118   0.68100   1.000
    O797    O    0.99033   0.46117   0.68104   1.000
    O798    O    0.99033   0.96118   0.68104   1.000
    O799    O    0.49033   0.46117   0.68104   1.000
    O800    O    0.13437   0.39154   0.69456   1.000
    O801    O    0.63438   0.89154   0.69456   1.000
    O802    O    0.63438   0.39154   0.69456   1.000
    O803    O    0.13438   0.89154   0.69456   1.000
    O804    O    0.94861   0.50001   0.69503   1.000
    O805    O    0.44860   0.00001   0.69503   1.000
    O806    O    0.44860   0.50001   0.69503   1.000
    O807    O    0.94861   0.00001   0.69503   1.000
    O808    O    0.16365   0.86440   0.71774   1.000
    O809    O    0.66366   0.36439   0.71774   1.000
    O810    O    0.66366   0.86440   0.71774   1.000
    O811    O    0.16365   0.36439   0.71774   1.000
    O812    O    0.44417   0.94805   0.72303   1.000
    O813    O    0.94418   0.94805   0.72303   1.000
    O814    O    0.94418   0.44804   0.72303   1.000
    O815    O    0.44417   0.44804   0.72303   1.000
    O816    O    0.61464   0.71841   0.70166   1.000
    O817    O    0.61464   0.21840   0.70167   1.000
    O818    O    0.11463   0.71841   0.70164   1.000
    O819    O    0.11463   0.21840   0.70166   1.000
    O820    O    0.14969   0.68340   0.72772   1.000
    O821    O    0.64970   0.68340   0.72774   1.000
    O822    O    0.14969   0.18339   0.72772   1.000
    O823    O    0.64970   0.18339   0.72775   1.000
    O824    O    0.46694   0.34992   0.72640   1.000
    O825    O    0.96696   0.84992   0.72640   1.000
    O826    O    0.96695   0.34992   0.72639   1.000
    O827    O    0.46694   0.84992   0.72639   1.000
    O828    O    0.66863   0.03900   0.70991   1.000
    O829    O    0.67907   0.08650   0.73206   1.000
    O830    O    0.16862   0.53901   0.70991   1.000
    O831    O    0.17906   0.58650   0.73206   1.000
    O832    O    0.16862   0.03900   0.70991   1.000
    O833    O    0.17906   0.08649   0.73206   1.000
    O834    O    0.66864   0.53901   0.70991   1.000
    O835    O    0.67907   0.58650   0.73206   1.000
    O836    O    0.43642   0.89101   0.74648   1.000
    O837    O    0.42903   0.83651   0.76786   1.000
    O838    O    0.93642   0.39101   0.74648   1.000
    O839    O    0.92903   0.33651   0.76786   1.000
    O840    O    0.43641   0.39101   0.74650   1.000
    O841    O    0.42903   0.33651   0.76787   1.000
    O842    O    0.93642   0.89101   0.74650   1.000
    O843    O    0.92904   0.83651   0.76787   1.000
    O844    O    0.89966   0.43340   0.77216   1.000
    O845    O    0.89967   0.93341   0.77216   1.000
    O846    O    0.39966   0.93341   0.77216   1.000
    O847    O    0.39966   0.43340   0.77216   1.000
    O848    O    0.18643   0.14099   0.75340   1.000
    O849    O    0.19414   0.19801   0.77688   1.000
    O850    O    0.68644   0.14099   0.75343   1.000
    O851    O    0.69415   0.19801   0.77690   1.000
    O852    O    0.18643   0.64099   0.75343   1.000
    O853    O    0.19414   0.69802   0.77690   1.000
    O854    O    0.68644   0.64099   0.75343   1.000
    O855    O    0.69415   0.69802   0.77690   1.000
    O856    O    0.71696   0.59989   0.77353   1.000
    O857    O    0.71696   0.09989   0.77353   1.000
    O858    O    0.21695   0.59989   0.77353   1.000
    O859    O    0.21695   0.09989   0.77353   1.000
    O860    O    0.41375   0.61432   0.78246   1.000
    O861    O    0.91376   0.11431   0.78246   1.000
    O862    O    0.91376   0.61432   0.78246   1.000
    O863    O    0.41375   0.11431   0.78246   1.000
    O864    O    0.91858   0.78901   0.79002   1.000
    O865    O    0.91858   0.28900   0.79002   1.000
    O866    O    0.41857   0.78901   0.79002   1.000
    O867    O    0.41857   0.28900   0.79002   1.000
    O868    O    0.88605   0.82423   0.81423   1.000
    O869    O    0.88605   0.32422   0.81423   1.000
    O870    O    0.38604   0.82423   0.81423   1.000
    O871    O    0.38604   0.32422   0.81423   1.000
    O872    O    0.86459   0.46840   0.79820   1.000
    O873    O    0.85694   0.41997   0.81871   1.000
    O874    O    0.86460   0.96841   0.79821   1.000
    O875    O    0.85695   0.91998   0.81871   1.000
    O876    O    0.36458   0.46840   0.79820   1.000
    O877    O    0.35693   0.41997   0.81871   1.000
    O878    O    0.36458   0.96840   0.79820   1.000
    O879    O    0.35693   0.91998   0.81871   1.000
    O880    O    0.19846   0.24994   0.80495   1.000
    O881    O    0.24028   0.21115   0.81889   1.000
    O882    O    0.19846   0.74995   0.80495   1.000
    O883    O    0.24028   0.71116   0.81889   1.000
    O884    O    0.69847   0.24995   0.80495   1.000
    O885    O    0.74029   0.21115   0.81890   1.000
    O886    O    0.69847   0.74995   0.80495   1.000
    O887    O    0.74029   0.71116   0.81889   1.000
    O888    O    0.88443   0.64142   0.80561   1.000
    O889    O    0.93517   0.63141   0.82885   1.000
    O890    O    0.88442   0.14142   0.80561   1.000
    O891    O    0.93517   0.13140   0.82885   1.000
    O892    O    0.38442   0.64142   0.80561   1.000
    O893    O    0.43516   0.63141   0.82885   1.000
    O894    O    0.38441   0.14142   0.80561   1.000
    O895    O    0.43516   0.13140   0.82885   1.000
    O896    O    0.29218   0.23193   0.86880   1.000
    O897    O    0.79219   0.73193   0.86880   1.000
    O898    O    0.29218   0.73193   0.86880   1.000
    O899    O    0.79218   0.23192   0.86881   1.000
    O900    O    0.35071   0.36529   0.83941   1.000
    O901    O    0.33787   0.29874   0.86972   1.000
    O902    O    0.35071   0.86530   0.83941   1.000
    O903    O    0.33787   0.79875   0.86972   1.000
    O904    O    0.85071   0.36529   0.83941   1.000
    O905    O    0.83788   0.29874   0.86972   1.000
    O906    O    0.85072   0.86530   0.83941   1.000
    O907    O    0.83788   0.79875   0.86972   1.000
    O908    O    0.32050   0.90335   0.86067   1.000
    O909    O    0.32050   0.40335   0.86067   1.000
    O910    O    0.82051   0.90335   0.86063   1.000
    O911    O    0.82051   0.40335   0.86067   1.000
    O912    O    0.99022   0.11186   0.85250   1.000
    O913    O    0.04595   0.09259   0.87498   1.000
    O914    O    0.99022   0.61187   0.85250   1.000
    O915    O    0.04596   0.59260   0.87500   1.000
    O916    O    0.49022   0.11186   0.85250   1.000
    O917    O    0.54596   0.09259   0.87500   1.000
    O918    O    0.49022   0.61187   0.85250   1.000
    O919    O    0.54597   0.59260   0.87500   1.000
    O920    O    0.95794   0.15154   0.88602   1.000
    O921    O    0.45793   0.15154   0.88602   1.000
    O922    O    0.45793   0.65155   0.88602   1.000
    O923    O    0.95794   0.65155   0.88602   1.000
    O924    O    0.09512   0.07656   0.89654   1.000
    O925    O    0.09512   0.57657   0.89656   1.000
    O926    O    0.59513   0.07657   0.89656   1.000
    O927    O    0.59513   0.57657   0.89656   1.000
    O928    O    0.07267   0.11070   0.93038   1.000
    O929    O    0.07267   0.61071   0.93037   1.000
    O930    O    0.57268   0.11071   0.93037   1.000
    O931    O    0.57268   0.61071   0.93040   1.000
    O932    O    0.86058   0.74098   0.92116   1.000
    O933    O    0.78260   0.77660   0.94079   1.000
    O934    O    0.86058   0.24098   0.92116   1.000
    O935    O    0.78260   0.27660   0.94081   1.000
    O936    O    0.36057   0.74098   0.92116   1.000
    O937    O    0.28260   0.77660   0.94079   1.000
    O938    O    0.36057   0.24098   0.92116   1.000
    O939    O    0.28259   0.27660   0.94079   1.000
    O940    O    0.43063   0.19486   0.92862   1.000
    O941    O    0.48471   0.16944   0.94103   1.000
    O942    O    0.43063   0.69486   0.92862   1.000
    O943    O    0.48471   0.66945   0.94103   1.000
    O944    O    0.93064   0.19486   0.92862   1.000
    O945    O    0.98471   0.16944   0.94103   1.000
    O946    O    0.93064   0.69486   0.92862   1.000
    O947    O    0.98471   0.66945   0.94103   1.000
    O948    O    0.04370   0.64789   0.96288   1.000
    O949    O    0.54371   0.14788   0.96288   1.000
    O950    O    0.54371   0.64789   0.96291   1.000
    O951    O    0.04370   0.14788   0.96291   1.000
    O952    O    0.67232   0.24149   0.98208   1.000
    O953    O    0.17231   0.24149   0.98210   1.000
    O954    O    0.17231   0.74150   0.98210   1.000
    O955    O    0.67232   0.74150   0.98210   1.000
    O956    O    0.71739   0.77496   0.98898   1.000
    O957    O    0.21738   0.77496   0.98898   1.000
    O958    O    0.21737   0.27495   0.98898   1.000
    O959    O    0.71738   0.27495   0.98899   1.000
loop_
    _geom_bond_atom_site_label_1
    _geom_bond_atom_site_label_2
    _geom_bond_distance
    _geom_bond_site_symmetry_2
    _ccdc_geom_bond_type
    C235   O448      0.68172      .   S
    C369   O448      0.68172      .   S
    C235   O449      0.55488      .   S
    C83    O449      0.55488      .   S
    C235   O450      0.65639  1_554   S
    C379   O450      0.65639      .   S
    C234   O451      0.68172      .   S
    C368   O451      0.68172      .   S
    C234   O452      0.55450      .   S
    C82    O452      0.55450      .   S
    C234   O453      0.65638  1_554   S
    C378   O453      0.65638      .   S
    C233   O454      0.68187      .   S
    C371   O454      0.68187      .   S
    C233   O455      0.55488      .   S
    C81    O455      0.55488      .   S
    C233   O456      0.65638  1_554   S
    C377   O456      0.65638      .   S
    C232   O457      0.68187      .   S
    C370   O457      0.68187      .   S
    C232   O458      0.55488      .   S
    C80    O458      0.55488      .   S
    C232   O459      0.65638  1_554   S
    C376   O459      0.65638      .   S
    C368   O460      0.98704  1_655   S
    C8     O460      0.98704      .   S
    C368   O461      0.69124  1_654   S
    C248   O461      0.69124      .   S
    C369   O462      0.98704  1_655   S
    C9     O462      0.98704      .   S
    C369   O463      0.69123  1_654   S
    C249   O463      0.69123      .   S
    C370   O464      0.98704      .   S
    C10    O464      0.98704      .   S
    C370   O465      0.69123  1_554   S
    C250   O465      0.69123      .   S
    C371   O466      0.98704      .   S
    C11    O466      0.98704      .   S
    C371   O467      0.69123  1_554   S
    C251   O467      0.69123      .   S
    C292   O468      0.67457      .   S
    C396   O468      0.67457      .   S
    C292   O469      0.70344      .   S
    C288   O469      0.70344      .   S
    C292   O470      0.69144      .   S
    C392   O470      0.69144  1_556   S
    C293   O471      0.67457      .   S
    C397   O471      0.67457      .   S
    C293   O472      0.70344      .   S
    C289   O472      0.70344      .   S
    C293   O473      0.69144      .   S
    C393   O473      0.69144  1_556   S
    C294   O474      0.67458      .   S
    C398   O474      0.67458      .   S
    C294   O475      0.70344      .   S
    C290   O475      0.70344      .   S
    C294   O476      0.69124      .   S
    C394   O476      0.69124  1_556   S
    C295   O477      0.67458      .   S
    C399   O477      0.67458      .   S
    C295   O478      0.70344      .   S
    C291   O478      0.70344      .   S
    C295   O479      0.69144      .   S
    C395   O479      0.69144  1_556   S
    C396   O480      0.67102      .   S
    C280   O480      0.67102      .   S
    C397   O481      0.67103      .   S
    C281   O481      0.67103      .   S
    C398   O482      0.67103      .   S
    C282   O482      0.67103      .   S
    C399   O483      0.67102      .   S
    C283   O483      0.67102      .   S
    C401   O484      0.69789      .   S
    C289   O484      0.69789      .   S
    C401   O485      1.01180      .   S
    C9     O485      1.01180      .   S
    C401   O486      0.67383      .   S
    C277   O486      0.67383  1_556   S
    C402   O487      0.69790      .   S
    C290   O487      0.69790      .   S
    C402   O488      1.01180      .   S
    C10    O488      1.01180      .   S
    C402   O489      0.67383      .   S
    C278   O489      0.67383  1_556   S
    C403   O490      0.69789      .   S
    C291   O490      0.69789      .   S
    C403   O491      1.01181      .   S
    C11    O491      1.01181      .   S
    C403   O492      0.67383      .   S
    C279   O492      0.67383  1_556   S
    C400   O493      0.69789      .   S
    C288   O493      0.69789      .   S
    C400   O494      1.01180      .   S
    C8     O494      1.01180      .   S
    C400   O495      0.67383      .   S
    C276   O495      0.67383  1_556   S
    C288   O496      0.70853      .   S
    C284   O496      0.70853      .   S
    C289   O497      0.70854      .   S
    C285   O497      0.70854      .   S
    C290   O498      0.70854      .   S
    C286   O498      0.70854      .   S
    C291   O499      0.70854      .   S
    C287   O499      0.70854      .   S
    C9     O500      1.02071      .   S
    C365   O500      1.02071      .   S
    C9     O501      0.99490      .   S
    C433   O501      0.99490      .   S
    C11    O502      1.02073      .   S
    C367   O502      1.02073      .   S
    C11    O503      0.99518      .   S
    C435   O503      0.99518      .   S
    C10    O504      1.02020      .   S
    C366   O504      1.02020      .   S
    C10    O505      0.99518      .   S
    C434   O505      0.99518      .   S
    C8     O506      1.02020      .   S
    C364   O506      1.02020      .   S
    C8     O507      0.99515      .   S
    C432   O507      0.99515      .   S
    C283   O508      0.54651      .   S
    C119   O508      0.54651      .   S
    C283   O509      0.67202      .   S
    C407   O509      0.67202      .   S
    C282   O510      0.54651      .   S
    C118   O510      0.54651      .   S
    C282   O511      0.67203      .   S
    C406   O511      0.67203      .   S
    C281   O512      0.54651      .   S
    C117   O512      0.54651      .   S
    C281   O513      0.67202      .   S
    C405   O513      0.67202      .   S
    C280   O514      0.54651      .   S
    C116   O514      0.54651      .   S
    C280   O515      0.67203      .   S
    C404   O515      0.67203      .   S
    C74    O516      0.54478      .   S
    C226   O516      0.54478      .   S
    C73    O517      0.54478      .   S
    C225   O517      0.54478      .   S
    C72    O518      0.54472      .   S
    C224   O518      0.54472      .   S
    C75    O519      0.54466      .   S
    C227   O519      0.54466      .   S
    C284   O520      0.67855      .   S
    C404   O520      0.67855      .   S
    C284   O521      0.67948      .   S
    C408   O521      0.67948      .   S
    C287   O522      0.67855      .   S
    C407   O522      0.67855      .   S
    C287   O523      0.67948      .   S
    C411   O523      0.67948      .   S
    C286   O524      0.67855      .   S
    C406   O524      0.67855      .   S
    C286   O525      0.67947      .   S
    C410   O525      0.67947      .   S
    C285   O526      0.67854      .   S
    C405   O526      0.67854      .   S
    C285   O527      0.67948      .   S
    C409   O527      0.67948      .   S
    C227   O528      0.67488      .   S
    C367   O528      0.67488      .   S
    C227   O529      0.69444      .   S
    C231   O529      0.69444      .   S
    C226   O530      0.67484      .   S
    C366   O530      0.67484      .   S
    C226   O531      0.69445      .   S
    C230   O531      0.69445      .   S
    C225   O532      0.67489      .   S
    C365   O532      0.67489      .   S
    C225   O533      0.69444      .   S
    C229   O533      0.69444      .   S
    C224   O534      0.67485      .   S
    C364   O534      0.67485      .   S
    C224   O535      0.69445      .   S
    C228   O535      0.69445      .   S
    C366   O536      0.67559      .   S
    C222   O536      0.67559      .   S
    C364   O537      0.67558      .   S
    C220   O537      0.67558      .   S
    C367   O538      0.67497      .   S
    C223   O538      0.67497      .   S
    C365   O539      0.67500      .   S
    C221   O539      0.67500      .   S
    C433   O540      0.65233  1_455   S
    C255   O540      0.65233      .   S
    C432   O541      0.65227  1_455   S
    C254   O541      0.65227      .   S
    C434   O542      0.65234      .   S
    C252   O542      0.65234      .   S
    C435   O543      0.65235      .   S
    C253   O543      0.65235      .   S
    C127   O544      0.51238      .   S
    C411   O544      0.51238      .   S
    C126   O545      0.51238      .   S
    C410   O545      0.51238      .   S
    C125   O546      0.51238      .   S
    C409   O546      0.51238      .   S
    C124   O547      0.51238      .   S
    C408   O547      0.51238      .   S
    C439   O548      0.62165      .   S
    C255   O548      0.62165      .   S
    C438   O549      0.62163      .   S
    C254   O549      0.62163      .   S
    C437   O550      0.62161      .   S
    C253   O550      0.62161      .   S
    C436   O551      0.62161      .   S
    C252   O551      0.62161      .   S
    C411   O552      0.51420      .   S
    C123   O552      0.51420      .   S
    C410   O553      0.51420      .   S
    C122   O553      0.51420      .   S
    C409   O554      0.51420      .   S
    C121   O554      0.51420      .   S
    C408   O555      0.51420      .   S
    C120   O555      0.51420      .   S
    C255   O556      0.75453      .   S
    C263   O556      0.75453      .   S
    C252   O557      0.75442      .   S
    C260   O557      0.75442      .   S
    C253   O558      0.75442      .   S
    C261   O558      0.75442      .   S
    C254   O559      0.75441      .   S
    C262   O559      0.75441      .   S
    C76    O560      0.54419      .   S
    C228   O560      0.54419      .   S
    C77    O561      0.54418      .   S
    C229   O561      0.54418      .   S
    C78    O562      0.54418      .   S
    C230   O562      0.54418      .   S
    C79    O563      0.54419      .   S
    C231   O563      0.54419      .   S
    C228   O564      0.69887      .   S
    C216   O564      0.69887      .   S
    C229   O565      0.69886      .   S
    C217   O565      0.69886      .   S
    C230   O566      0.69871      .   S
    C218   O566      0.69871      .   S
    C231   O567      0.69889      .   S
    C219   O567      0.69889      .   S
    C99    O568      0.54387      .   S
    C259   O568      0.54387      .   S
    C98    O569      0.54203      .   S
    C258   O569      0.54203      .   S
    C97    O570      0.54385      .   S
    C257   O570      0.54385      .   S
    C96    O571      0.54385      .   S
    C256   O571      0.54385      .   S
    C223   O572      0.54516      .   S
    C71    O572      0.54516      .   S
    C223   O573      0.69286      .   S
    C215   O573      0.69286      .   S
    C222   O574      0.54513      .   S
    C70    O574      0.54513      .   S
    C222   O575      0.69287      .   S
    C214   O575      0.69287      .   S
    C221   O576      0.54514      .   S
    C69    O576      0.54514      .   S
    C221   O577      0.69287      .   S
    C213   O577      0.69287      .   S
    C220   O578      0.54513      .   S
    C68    O578      0.54513      .   S
    C220   O579      0.69287      .   S
    C212   O579      0.69287      .   S
    C258   O580      0.69895      .   S
    C262   O580      0.69895      .   S
    C258   O581      0.69458      .   S
    C266   O581      0.69458      .   S
    C259   O582      0.69884      .   S
    C263   O582      0.69884      .   S
    C259   O583      0.69283      .   S
    C267   O583      0.69283      .   S
    C257   O584      0.69884      .   S
    C261   O584      0.69884      .   S
    C257   O585      0.69284      .   S
    C265   O585      0.69284      .   S
    C256   O586      0.69884      .   S
    C260   O586      0.69884      .   S
    C256   O587      0.69283      .   S
    C264   O587      0.69283      .   S
    C260   O588      0.69871      .   S
    C272   O588      0.69871      .   S
    C261   O589      0.69889      .   S
    C273   O589      0.69889      .   S
    C263   O590      0.69886      .   S
    C275   O590      0.69886      .   S
    C262   O591      0.69882      .   S
    C274   O591      0.69882      .   S
    C218   O592      0.69885      .   S
    C214   O592      0.69885      .   S
    C218   O593      0.75458      .   S
    C210   O593      0.75458      .   S
    C219   O594      0.69884      .   S
    C215   O594      0.69884      .   S
    C219   O595      0.75391      .   S
    C211   O595      0.75391      .   S
    C217   O596      0.69884      .   S
    C213   O596      0.69884      .   S
    C217   O597      0.75445      .   S
    C209   O597      0.75445      .   S
    C216   O598      0.69884      .   S
    C212   O598      0.69884      .   S
    C216   O599      0.75440      .   S
    C208   O599      0.75440      .   S
    C213   O600      0.54382      .   S
    C65    O600      0.54382      .   S
    C215   O601      0.54384      .   S
    C67    O601      0.54384      .   S
    C214   O602      0.54381      .   S
    C66    O602      0.54381      .   S
    C212   O603      0.54380      .   S
    C64    O603      0.54380      .   S
    C27    O604      0.51421      .   S
    C339   O604      0.51421      .   S
    C24    O605      0.51421      .   S
    C336   O605      0.51421      .   S
    C25    O606      0.51421      .   S
    C337   O606      0.51421      .   S
    C26    O607      0.51421      .   S
    C338   O607      0.51421      .   S
    C103   O608      0.54515      .   S
    C267   O608      0.54515      .   S
    C102   O609      0.54514      .   S
    C266   O609      0.54514      .   S
    C101   O610      0.54515      .   S
    C265   O610      0.54515      .   S
    C100   O611      0.54515      .   S
    C264   O611      0.54515      .   S
    C266   O612      0.67491      .   S
    C390   O612      0.67491      .   S
    C267   O613      0.67498      .   S
    C391   O613      0.67498      .   S
    C265   O614      0.67500      .   S
    C389   O614      0.67500      .   S
    C264   O615      0.67499      .   S
    C388   O615      0.67499      .   S
    C272   O616      0.54420      .   S
    C108   O616      0.54420      .   S
    C272   O617      0.69460      .   S
    C268   O617      0.69460      .   S
    C275   O618      0.54419      .   S
    C111   O618      0.54419      .   S
    C275   O619      0.69419      .   S
    C271   O619      0.69419      .   S
    C274   O620      0.54418      .   S
    C110   O620      0.54418      .   S
    C274   O621      0.69419      .   S
    C270   O621      0.69419      .   S
    C273   O622      0.54418      .   S
    C109   O622      0.54418      .   S
    C273   O623      0.69443      .   S
    C269   O623      0.69443      .   S
    C211   O624      0.62169      .   S
    C430   O624      0.62169      .   S
    C211   O625      0.65279      .   S
    C427   O625      0.65279      .   S
    C210   O626      0.62145      .   S
    C431   O626      0.62145  1_565   S
    C210   O627      0.65240      .   S
    C426   O627      0.65240      .   S
    C209   O628      0.62161      .   S
    C428   O628      0.62161      .   S
    C209   O629      0.65239      .   S
    C425   O629      0.65239      .   S
    C208   O630      0.62144      .   S
    C429   O630      0.62144  1_565   S
    C208   O631      0.65241      .   S
    C424   O631      0.65241      .   S
    C336   O632      0.51240      .   S
    C28    O632      0.51240      .   S
    C336   O633      0.67953      .   S
    C152   O633      0.67953      .   S
    C337   O634      0.51239      .   S
    C29    O634      0.51239      .   S
    C337   O635      0.67952      .   S
    C153   O635      0.67952      .   S
    C338   O636      0.51240      .   S
    C30    O636      0.51240      .   S
    C338   O637      0.67952      .   S
    C154   O637      0.67952      .   S
    C339   O638      0.51239      .   S
    C31    O638      0.51239      .   S
    C339   O639      0.67953      .   S
    C155   O639      0.67953      .   S
    C427   O640      0.99521      .   S
    C6     O640      0.99521      .   S
    C426   O641      0.99509      .   S
    C7     O641      0.99509  1_565   S
    C425   O642      0.99519      .   S
    C4     O642      0.99519      .   S
    C424   O643      0.99508      .   S
    C5     O643      0.99508  1_565   S
    C390   O644      0.67488      .   S
    C270   O644      0.67488      .   S
    C390   O645      1.02095      .   S
    C6     O645      1.02095      .   S
    C389   O646      0.67490      .   S
    C269   O646      0.67490      .   S
    C389   O647      1.02088      .   S
    C5     O647      1.02088      .   S
    C391   O648      0.67488      .   S
    C271   O648      0.67488      .   S
    C391   O649      1.02089      .   S
    C7     O649      1.02089      .   S
    C388   O650      0.67489      .   S
    C268   O650      0.67489      .   S
    C388   O651      1.02088      .   S
    C4     O651      1.02088      .   S
    C270   O652      0.54497      .   S
    C106   O652      0.54497      .   S
    C271   O653      0.54497      .   S
    C107   O653      0.54497      .   S
    C268   O654      0.54471      .   S
    C104   O654      0.54471      .   S
    C269   O655      0.54470      .   S
    C105   O655      0.54470      .   S
    C333   O656      0.67840  1_455   S
    C155   O656      0.67840      .   S
    C333   O657      0.67205      .   S
    C149   O657      0.67205      .   S
    C334   O658      0.67853      .   S
    C152   O658      0.67853      .   S
    C334   O659      0.67205      .   S
    C150   O659      0.67205      .   S
    C335   O660      0.67854      .   S
    C153   O660      0.67854      .   S
    C335   O661      0.67205      .   S
    C151   O661      0.67205      .   S
    C332   O662      0.67840  1_455   S
    C154   O662      0.67840      .   S
    C332   O663      0.67205      .   S
    C148   O663      0.67205      .   S
    C152   O664      0.70851      .   S
    C156   O664      0.70851      .   S
    C155   O665      0.70851      .   S
    C159   O665      0.70851      .   S
    C154   O666      0.70851      .   S
    C158   O666      0.70851      .   S
    C153   O667      0.70851      .   S
    C157   O667      0.70851      .   S
    C23    O668      0.54649      .   S
    C151   O668      0.54649      .   S
    C22    O669      0.54650      .   S
    C150   O669      0.54650      .   S
    C21    O670      0.54649      .   S
    C149   O670      0.54649      .   S
    C20    O671      0.54649      .   S
    C148   O671      0.54649      .   S
    C149   O672      0.67099      .   S
    C325   O672      0.67099      .   S
    C150   O673      0.67099      .   S
    C326   O673      0.67099      .   S
    C151   O674      0.67100      .   S
    C327   O674      0.67100      .   S
    C148   O675      0.67100      .   S
    C324   O675      0.67100      .   S
    C6     O676      1.01190      .   S
    C331   O676      1.01190      .   S
    C6     O677      0.98711      .   S
    C346   O677      0.98711      .   S
    C7     O678      1.01180  1_565   S
    C330   O678      1.01180      .   S
    C7     O679      0.98711      .   S
    C347   O679      0.98711      .   S
    C5     O680      1.01180  1_565   S
    C328   O680      1.01180      .   S
    C5     O681      0.98711      .   S
    C345   O681      0.98711      .   S
    C4     O682      1.01190      .   S
    C329   O682      1.01190      .   S
    C4     O683      0.98711      .   S
    C344   O683      0.98711      .   S
    C156   O684      0.69787      .   S
    C328   O684      0.69787      .   S
    C156   O685      0.70331      .   S
    C162   O685      0.70331      .   S
    C157   O686      0.69787      .   S
    C329   O686      0.69787      .   S
    C157   O687      0.70331      .   S
    C163   O687      0.70331      .   S
    C158   O688      0.69787      .   S
    C330   O688      0.69787      .   S
    C158   O689      0.70319      .   S
    C160   O689      0.70319  1_455   S
    C159   O690      0.69787      .   S
    C331   O690      0.69787      .   S
    C159   O691      0.70338      .   S
    C161   O691      0.70338  1_455   S
    C328   O692      0.67382      .   S
    C144   O692      0.67382      .   S
    C329   O693      0.67382      .   S
    C145   O693      0.67382      .   S
    C330   O694      0.67382      .   S
    C146   O694      0.67382      .   S
    C331   O695      0.67382      .   S
    C147   O695      0.67382      .   S
    C325   O696      0.67460      .   S
    C161   O696      0.67460      .   S
    C327   O697      0.67457      .   S
    C163   O697      0.67457      .   S
    C326   O698      0.67457      .   S
    C162   O698      0.67457      .   S
    C324   O699      0.67457      .   S
    C160   O699      0.67457      .   S
    C162   O700      0.69144      .   S
    C322   O700      0.69144      .   S
    C163   O701      0.69144      .   S
    C323   O701      0.69144      .   S
    C160   O702      0.69144      .   S
    C320   O702      0.69144  1_655   S
    C161   O703      0.69123      .   S
    C321   O703      0.69123  1_655   S
    C49    O704      0.54338      .   S
    C188   O704      0.54338      .   S
    C51    O705      0.54338      .   S
    C190   O705      0.54338      .   S
    C50    O706      0.54329      .   S
    C191   O706      0.54329  1_565   S
    C48    O707      0.54329      .   S
    C189   O707      0.54329  1_565   S
    C346   O708      0.67649      .   S
    C190   O708      0.67649      .   S
    C346   O709      0.69116      .   S
    C206   O709      0.69116      .   S
    C345   O710      0.67649      .   S
    C189   O710      0.67649      .   S
    C345   O711      0.69116      .   S
    C205   O711      0.69116      .   S
    C344   O712      0.67649      .   S
    C188   O712      0.67649      .   S
    C344   O713      0.69116      .   S
    C204   O713      0.69116      .   S
    C347   O714      0.67650      .   S
    C191   O714      0.67650      .   S
    C347   O715      0.69116      .   S
    C207   O715      0.69116      .   S
    C188   O716      0.67380      .   S
    C352   O716      0.67380      .   S
    C189   O717      0.67380      .   S
    C353   O717      0.67380      .   S
    C190   O718      0.67380      .   S
    C354   O718      0.67380      .   S
    C191   O719      0.67379      .   S
    C355   O719      0.67379      .   S
    C144   O720      0.67650      .   S
    C322   O720      0.67650      .   S
    C144   O721      0.54325  1_545   S
    C17    O721      0.54325      .   S
    C145   O722      0.67650      .   S
    C323   O722      0.67650      .   S
    C145   O723      0.54291      .   S
    C16    O723      0.54291      .   S
    C146   O724      0.67636      .   S
    C320   O724      0.67636      .   S
    C146   O725      0.54278  1_545   S
    C19    O725      0.54278      .   S
    C147   O726      0.67636      .   S
    C321   O726      0.67636      .   S
    C147   O727      0.54338      .   S
    C18    O727      0.54338      .   S
    C323   O728      0.98722      .   S
    C3     O728      0.98722      .   S
    C321   O729      0.98722  1_655   S
    C1     O729      0.98722      .   S
    C322   O730      0.98722      .   S
    C2     O730      0.98722      .   S
    C320   O731      0.98722  1_655   S
    C0     O731      0.98722      .   S
    C206   O732      0.67460      .   S
    C350   O732      0.67460      .   S
    C206   O733      0.70356      .   S
    C202   O733      0.70356      .   S
    C207   O734      0.67459      .   S
    C351   O734      0.67459      .   S
    C207   O735      0.70356      .   S
    C203   O735      0.70356      .   S
    C205   O736      0.67459      .   S
    C349   O736      0.67459      .   S
    C205   O737      0.70356      .   S
    C201   O737      0.70356      .   S
    C204   O738      0.67459      .   S
    C348   O738      0.67459      .   S
    C204   O739      0.70356      .   S
    C200   O739      0.70356      .   S
    C348   O740      0.67102      .   S
    C192   O740      0.67102      .   S
    C349   O741      0.67101      .   S
    C193   O741      0.67101      .   S
    C350   O742      0.67101      .   S
    C194   O742      0.67101      .   S
    C351   O743      0.67102      .   S
    C195   O743      0.67102      .   S
    C352   O744      0.69790      .   S
    C200   O744      0.69790      .   S
    C352   O745      1.01199      .   S
    C1     O745      1.01199      .   S
    C353   O746      0.69790      .   S
    C201   O746      0.69790      .   S
    C353   O747      1.01195      .   S
    C0     O747      1.01195  1_545   S
    C355   O748      0.69790      .   S
    C203   O748      0.69790      .   S
    C355   O749      1.01195      .   S
    C2     O749      1.01195  1_545   S
    C354   O750      0.69791      .   S
    C202   O750      0.69791      .   S
    C354   O751      1.01199      .   S
    C3     O751      1.01199      .   S
    C203   O752      0.70849      .   S
    C199   O752      0.70849      .   S
    C202   O753      0.70849      .   S
    C198   O753      0.70849      .   S
    C201   O754      0.70849      .   S
    C197   O754      0.70849      .   S
    C200   O755      0.70849      .   S
    C196   O755      0.70849      .   S
    C1     O756      1.02040      .   S
    C413   O756      1.02040      .   S
    C1     O757      0.99499      .   S
    C416   O757      0.99499      .   S
    C3     O758      1.02066      .   S
    C415   O758      1.02066      .   S
    C3     O759      0.99498      .   S
    C418   O759      0.99498      .   S
    C2     O760      1.02063      .   S
    C414   O760      1.02063      .   S
    C2     O761      0.99436  1_545   S
    C419   O761      0.99436      .   S
    C0     O762      1.02066      .   S
    C412   O762      1.02066      .   S
    C0     O763      0.99486  1_545   S
    C417   O763      0.99486      .   S
    C192   O764      0.54650      .   S
    C52    O764      0.54650      .   S
    C192   O765      0.67200      .   S
    C356   O765      0.67200      .   S
    C193   O766      0.54651      .   S
    C53    O766      0.54651      .   S
    C193   O767      0.67200      .   S
    C357   O767      0.67200      .   S
    C194   O768      0.54651      .   S
    C54    O768      0.54651      .   S
    C194   O769      0.67200      .   S
    C358   O769      0.67200      .   S
    C195   O770      0.54651      .   S
    C55    O770      0.54651      .   S
    C195   O771      0.67200      .   S
    C359   O771      0.67200      .   S
    C137   O772      0.54471      .   S
    C313   O772      0.54471      .   S
    C138   O773      0.54471      .   S
    C314   O773      0.54471      .   S
    C139   O774      0.54470      .   S
    C315   O774      0.54470      .   S
    C136   O775      0.54470      .   S
    C312   O775      0.54470      .   S
    C198   O776      0.67853      .   S
    C358   O776      0.67853      .   S
    C198   O777      0.67952      .   S
    C362   O777      0.67952      .   S
    C196   O778      0.67854      .   S
    C356   O778      0.67854      .   S
    C196   O779      0.67952      .   S
    C360   O779      0.67952      .   S
    C197   O780      0.67852      .   S
    C357   O780      0.67852      .   S
    C197   O781      0.67952      .   S
    C361   O781      0.67952      .   S
    C199   O782      0.67854      .   S
    C359   O782      0.67854      .   S
    C199   O783      0.67952      .   S
    C363   O783      0.67952      .   S
    C315   O784      0.67487      .   S
    C415   O784      0.67487      .   S
    C315   O785      0.69442      .   S
    C319   O785      0.69442      .   S
    C314   O786      0.67487      .   S
    C414   O786      0.67487      .   S
    C314   O787      0.69445      .   S
    C318   O787      0.69445      .   S
    C313   O788      0.67486      .   S
    C413   O788      0.67486      .   S
    C313   O789      0.69417      .   S
    C317   O789      0.69417      .   S
    C312   O790      0.67487      .   S
    C412   O790      0.67487      .   S
    C312   O791      0.69442      .   S
    C316   O791      0.69442      .   S
    C413   O792      0.67526      .   S
    C309   O792      0.67526      .   S
    C414   O793      0.67498      .   S
    C310   O793      0.67498      .   S
    C415   O794      0.67498      .   S
    C311   O794      0.67498      .   S
    C412   O795      0.67497      .   S
    C308   O795      0.67497      .   S
    C419   O796      0.65278      .   S
    C165   O796      0.65278      .   S
    C416   O797      0.65223  1_455   S
    C166   O797      0.65223      .   S
    C417   O798      0.65226  1_455   S
    C167   O798      0.65226      .   S
    C418   O799      0.65237      .   S
    C164   O799      0.65237      .   S
    C60    O800      0.51237      .   S
    C360   O800      0.51237      .   S
    C63    O801      0.51237      .   S
    C363   O801      0.51237      .   S
    C62    O802      0.51238      .   S
    C362   O802      0.51238      .   S
    C61    O803      0.51238      .   S
    C361   O803      0.51238      .   S
    C423   O804      0.62159      .   S
    C166   O804      0.62159      .   S
    C420   O805      0.62147      .   S
    C165   O805      0.62147  1_565   S
    C421   O806      0.62161      .   S
    C164   O806      0.62161      .   S
    C422   O807      0.62148      .   S
    C167   O807      0.62148  1_565   S
    C361   O808      0.51422      .   S
    C57    O808      0.51422      .   S
    C362   O809      0.51423      .   S
    C58    O809      0.51423      .   S
    C363   O810      0.51423      .   S
    C59    O810      0.51423      .   S
    C360   O811      0.51422      .   S
    C56    O811      0.51422      .   S
    C165   O812      0.75433      .   S
    C173   O812      0.75433      .   S
    C167   O813      0.75434      .   S
    C175   O813      0.75434      .   S
    C166   O814      0.75435      .   S
    C174   O814      0.75435      .   S
    C164   O815      0.75434      .   S
    C172   O815      0.75434      .   S
    C143   O816      0.54418      .   S
    C319   O816      0.54418      .   S
    C142   O817      0.54419      .   S
    C318   O817      0.54419      .   S
    C141   O818      0.54417      .   S
    C317   O818      0.54417      .   S
    C140   O819      0.54418      .   S
    C316   O819      0.54418      .   S
    C317   O820      0.69910      .   S
    C305   O820      0.69910      .   S
    C319   O821      0.69887      .   S
    C307   O821      0.69887      .   S
    C316   O822      0.69856      .   S
    C304   O822      0.69856      .   S
    C318   O823      0.69885      .   S
    C306   O823      0.69885      .   S
    C32    O824      0.54386      .   S
    C168   O824      0.54386      .   S
    C35    O825      0.54385      .   S
    C171   O825      0.54385      .   S
    C34    O826      0.54375      .   S
    C170   O826      0.54375      .   S
    C33    O827      0.54375      .   S
    C169   O827      0.54375      .   S
    C310   O828      0.54516      .   S
    C134   O828      0.54516      .   S
    C310   O829      0.69284      .   S
    C302   O829      0.69284      .   S
    C309   O830      0.54514      .   S
    C133   O830      0.54514      .   S
    C309   O831      0.69285      .   S
    C301   O831      0.69285      .   S
    C308   O832      0.54515      .   S
    C132   O832      0.54515      .   S
    C308   O833      0.69287      .   S
    C300   O833      0.69287      .   S
    C311   O834      0.54515      .   S
    C135   O834      0.54515      .   S
    C311   O835      0.69281      .   S
    C303   O835      0.69281      .   S
    C169   O836      0.69884      .   S
    C173   O836      0.69884      .   S
    C169   O837      0.69291      .   S
    C177   O837      0.69291      .   S
    C170   O838      0.69884      .   S
    C174   O838      0.69884      .   S
    C170   O839      0.69291      .   S
    C178   O839      0.69291      .   S
    C168   O840      0.69884      .   S
    C172   O840      0.69884      .   S
    C168   O841      0.69281      .   S
    C176   O841      0.69281      .   S
    C171   O842      0.69883      .   S
    C175   O842      0.69883      .   S
    C171   O843      0.69281      .   S
    C179   O843      0.69281      .   S
    C174   O844      0.69885      .   S
    C186   O844      0.69885      .   S
    C175   O845      0.69880      .   S
    C187   O845      0.69880      .   S
    C173   O846      0.69886      .   S
    C185   O846      0.69886      .   S
    C172   O847      0.69883      .   S
    C184   O847      0.69883      .   S
    C304   O848      0.69885      .   S
    C300   O848      0.69885      .   S
    C304   O849      0.75464      .   S
    C296   O849      0.75464      .   S
    C306   O850      0.69884      .   S
    C302   O850      0.69884      .   S
    C306   O851      0.75440      .   S
    C298   O851      0.75440      .   S
    C305   O852      0.69885      .   S
    C301   O852      0.69885      .   S
    C305   O853      0.75440      .   S
    C297   O853      0.75440      .   S
    C307   O854      0.69882      .   S
    C303   O854      0.69882      .   S
    C307   O855      0.75435      .   S
    C299   O855      0.75435      .   S
    C303   O856      0.54388      .   S
    C131   O856      0.54388      .   S
    C302   O857      0.54388      .   S
    C130   O857      0.54388      .   S
    C301   O858      0.54384      .   S
    C129   O858      0.54384      .   S
    C300   O859      0.54382      .   S
    C128   O859      0.54382      .   S
    C89    O860      0.51415      .   S
    C385   O860      0.51415      .   S
    C90    O861      0.51415      .   S
    C386   O861      0.51415      .   S
    C91    O862      0.51415      .   S
    C387   O862      0.51415      .   S
    C88    O863      0.51415      .   S
    C384   O863      0.51415      .   S
    C39    O864      0.54515      .   S
    C179   O864      0.54515      .   S
    C38    O865      0.54515      .   S
    C178   O865      0.54515      .   S
    C37    O866      0.54515      .   S
    C177   O866      0.54515      .   S
    C36    O867      0.54515      .   S
    C176   O867      0.54515      .   S
    C179   O868      0.67498      .   S
    C343   O868      0.67498      .   S
    C178   O869      0.67496      .   S
    C342   O869      0.67496      .   S
    C177   O870      0.67495      .   S
    C341   O870      0.67495      .   S
    C176   O871      0.67497      .   S
    C340   O871      0.67497      .   S
    C186   O872      0.54419      .   S
    C46    O872      0.54419      .   S
    C186   O873      0.69443      .   S
    C182   O873      0.69443      .   S
    C187   O874      0.54419      .   S
    C47    O874      0.54419      .   S
    C187   O875      0.69444      .   S
    C183   O875      0.69444      .   S
    C184   O876      0.54418      .   S
    C44    O876      0.54418      .   S
    C184   O877      0.69443      .   S
    C180   O877      0.69443      .   S
    C185   O878      0.54419      .   S
    C45    O878      0.54419      .   S
    C185   O879      0.69443      .   S
    C181   O879      0.69443      .   S
    C296   O880      0.62161      .   S
    C444   O880      0.62161      .   S
    C296   O881      0.65241      .   S
    C440   O881      0.65241      .   S
    C297   O882      0.62161      .   S
    C445   O882      0.62161      .   S
    C297   O883      0.65237      .   S
    C441   O883      0.65237      .   S
    C298   O884      0.62161      .   S
    C446   O884      0.62161      .   S
    C298   O885      0.65238      .   S
    C442   O885      0.65238      .   S
    C299   O886      0.62161      .   S
    C447   O886      0.62161      .   S
    C299   O887      0.65241      .   S
    C443   O887      0.65241      .   S
    C387   O888      0.51238      .   S
    C95    O888      0.51238      .   S
    C387   O889      0.67951      .   S
    C243   O889      0.67951      .   S
    C386   O890      0.51238      .   S
    C94    O890      0.51238      .   S
    C386   O891      0.67951      .   S
    C242   O891      0.67951      .   S
    C385   O892      0.51238      .   S
    C93    O892      0.51238      .   S
    C385   O893      0.67951      .   S
    C241   O893      0.67951      .   S
    C384   O894      0.51238      .   S
    C92    O894      0.51238      .   S
    C384   O895      0.67950      .   S
    C240   O895      0.67950      .   S
    C440   O896      0.99511      .   S
    C12    O896      0.99511      .   S
    C443   O897      0.99511      .   S
    C15    O897      0.99511      .   S
    C441   O898      0.99513      .   S
    C13    O898      0.99513      .   S
    C442   O899      0.99509      .   S
    C14    O899      0.99509      .   S
    C340   O900      0.67487      .   S
    C180   O900      0.67487      .   S
    C340   O901      1.02044      .   S
    C12    O901      1.02044      .   S
    C341   O902      0.67486      .   S
    C181   O902      0.67486      .   S
    C341   O903      1.02045      .   S
    C13    O903      1.02045      .   S
    C342   O904      0.67487      .   S
    C182   O904      0.67487      .   S
    C342   O905      1.02044      .   S
    C14    O905      1.02044      .   S
    C343   O906      0.67487      .   S
    C183   O906      0.67487      .   S
    C343   O907      1.02044      .   S
    C15    O907      1.02044      .   S
    C181   O908      0.54468      .   S
    C41    O908      0.54468      .   S
    C180   O909      0.54468      .   S
    C40    O909      0.54468      .   S
    C183   O910      0.54416      .   S
    C43    O910      0.54416      .   S
    C182   O911      0.54468      .   S
    C42    O911      0.54468      .   S
    C380   O912      0.67841  1_455   S
    C242   O912      0.67841      .   S
    C380   O913      0.67181      .   S
    C236   O913      0.67181      .   S
    C381   O914      0.67841  1_455   S
    C243   O914      0.67841      .   S
    C381   O915      0.67201      .   S
    C237   O915      0.67201      .   S
    C382   O916      0.67855      .   S
    C240   O916      0.67855      .   S
    C382   O917      0.67201      .   S
    C238   O917      0.67201      .   S
    C383   O918      0.67854      .   S
    C241   O918      0.67854      .   S
    C383   O919      0.67201      .   S
    C239   O919      0.67201      .   S
    C242   O920      0.70851      .   S
    C246   O920      0.70851      .   S
    C240   O921      0.70850      .   S
    C244   O921      0.70850      .   S
    C241   O922      0.70850      .   S
    C245   O922      0.70850      .   S
    C243   O923      0.70850      .   S
    C247   O923      0.70850      .   S
    C84    O924      0.54646      .   S
    C236   O924      0.54646      .   S
    C85    O925      0.54650      .   S
    C237   O925      0.54650      .   S
    C86    O926      0.54650      .   S
    C238   O926      0.54650      .   S
    C87    O927      0.54650      .   S
    C239   O927      0.54650      .   S
    C236   O928      0.67131      .   S
    C372   O928      0.67131      .   S
    C237   O929      0.67051      .   S
    C373   O929      0.67051      .   S
    C238   O930      0.67051      .   S
    C374   O930      0.67051      .   S
    C239   O931      0.67098      .   S
    C375   O931      0.67098      .   S
    C15    O932      1.01194      .   S
    C379   O932      1.01194      .   S
    C15    O933      0.98668      .   S
    C395   O933      0.98668      .   S
    C14    O934      1.01194      .   S
    C378   O934      1.01194      .   S
    C14    O935      0.98690      .   S
    C394   O935      0.98690      .   S
    C13    O936      1.01194      .   S
    C377   O936      1.01194      .   S
    C13    O937      0.98668      .   S
    C393   O937      0.98668      .   S
    C12    O938      1.01194      .   S
    C376   O938      1.01194      .   S
    C12    O939      0.98668      .   S
    C392   O939      0.98668      .   S
    C244   O940      0.69793      .   S
    C376   O940      0.69793      .   S
    C244   O941      0.70349      .   S
    C250   O941      0.70349      .   S
    C245   O942      0.69793      .   S
    C377   O942      0.69793      .   S
    C245   O943      0.70349      .   S
    C251   O943      0.70349      .   S
    C246   O944      0.69793      .   S
    C378   O944      0.69793      .   S
    C246   O945      0.70337      .   S
    C248   O945      0.70337  1_455   S
    C247   O946      0.69793      .   S
    C379   O946      0.69793      .   S
    C247   O947      0.70337      .   S
    C249   O947      0.70337  1_455   S
    C373   O948      0.67463      .   S
    C249   O948      0.67463      .   S
    C374   O949      0.67463      .   S
    C250   O949      0.67463      .   S
    C375   O950      0.67460      .   S
    C251   O950      0.67460      .   S
    C372   O951      0.67458      .   S
    C248   O951      0.67458      .   S
    C114   O952      0.54374      .   S
    C278   O952      0.54374      .   S
    C112   O953      0.54348      .   S
    C276   O953      0.54348      .   S
    C113   O954      0.54348      .   S
    C277   O954      0.54348      .   S
    C115   O955      0.54349      .   S
    C279   O955      0.54349      .   S
    C395   O956      0.67658      .   S
    C279   O956      0.67658      .   S
    C393   O957      0.67658      .   S
    C277   O957      0.67658      .   S
    C392   O958      0.67658      .   S
    C276   O958      0.67658      .   S
    C394   O959      0.67651      .   S
    C278   O959      0.67651      .   S
