# CIF file generated by openbabel 2.4.90, see http://openbabel.sf.net
data_I
_chemical_name_common ''
_cell_length_a 14.594
_cell_length_b 16.877
_cell_length_c 17.459
_cell_angle_alpha 90.002
_cell_angle_beta 95.55
_cell_angle_gamma 90.028
_space_group_name_H-M_alt 'P 1'
_space_group_name_Hall 'P 1'
loop_
    _symmetry_equiv_pos_as_xyz
    x,y,z
loop_
    _atom_site_label
    _atom_site_type_symbol
    _atom_site_fract_x
    _atom_site_fract_y
    _atom_site_fract_z
    _atom_site_occupancy
    H0      H    0.46646   0.93384   0.44324   1.000
    H1      H    0.96644   0.93385   0.44324   1.000
    H2      H    0.40511   0.02334   0.46046   1.000
    H3      H    0.90509   0.02335   0.46046   1.000
    H4      H    0.28331   0.43381   0.05676   1.000
    H5      H    0.78330   0.43382   0.05676   1.000
    H6      H    0.34488   0.52327   0.03960   1.000
    H7      H    0.84486   0.52327   0.03965   1.000
    H8      H    0.03354   0.06611   0.55678   1.000
    H9      H    0.53353   0.06611   0.55677   1.000
    H10     H    0.09489   0.97661   0.53955   1.000
    H11     H    0.59488   0.97661   0.53955   1.000
    C12     C    0.29491   0.47965   0.01396   1.000
    H13     H    0.21668   0.56614   0.94326   1.000
    H14     H    0.71667   0.56614   0.94326   1.000
    H15     H    0.15511   0.47668   0.96036   1.000
    H16     H    0.65510   0.47668   0.96036   1.000
    C17     C    0.45502   0.97966   0.48608   1.000
    C18     C    0.95500   0.97967   0.48608   1.000
    C19     C    0.79490   0.47965   0.01396   1.000
    C20     C    0.04498   0.02029   0.51393   1.000
    C21     C    0.54497   0.02029   0.51393   1.000
    C22     C    0.20508   0.52030   0.98606   1.000
    C23     C    0.70507   0.52031   0.98606   1.000
    O24     O    0.42259   0.94368   0.55283   1.000
    O25     O    0.92257   0.94369   0.55283   1.000
    O26     O    0.32735   0.44367   0.94724   1.000
    O27     O    0.82733   0.44366   0.94724   1.000
    O28     O    0.07740   0.05629   0.44718   1.000
    O29     O    0.57740   0.05627   0.44718   1.000
    O30     O    0.17264   0.55628   0.05278   1.000
    O31     O    0.67263   0.55629   0.05278   1.000
loop_
    _geom_bond_atom_site_label_1
    _geom_bond_atom_site_label_2
    _geom_bond_distance
    _geom_bond_site_symmetry_2
    _ccdc_geom_bond_type
    C19    H7        1.10051      .   S
    C19    H5        1.09986      .   S
    C19    O27       1.43411  1_554   S
    C19    C23       1.51801  1_554   S
    C12    H6        1.10021      .   S
    C12    H4        1.09987      .   S
    C12    O26       1.43410  1_554   S
    C12    C22       1.51801  1_554   S
    O30    C22       1.43411  1_554   S
    O31    C23       1.43411  1_554   S
    H1     C18       1.09980      .   S
    H0     C17       1.09981      .   S
    O28    C20       1.43440      .   S
    O29    C21       1.43435      .   S
    H3     C18       1.10073  1_545   S
    H2     C17       1.10073  1_545   S
    C17    C21       1.51839  1_565   S
    C17    O24       1.43437      .   S
    C18    C20       1.51867  1_665   S
    C18    O25       1.43437      .   S
    C20    H10       1.10077  1_545   S
    C20    H8        1.09988      .   S
    C21    H11       1.10071  1_545   S
    C21    H9        1.09984      .   S
    H13    C22       1.09988      .   S
    H14    C23       1.09987      .   S
    H15    C22       1.10055      .   S
    H16    C23       1.10056      .   S
