# CIF file generated by openbabel 2.4.90, see http://openbabel.sf.net
data_I
_chemical_name_common ''
_cell_length_a 14.594
_cell_length_b 16.877
_cell_length_c 17.459
_cell_angle_alpha 90.002
_cell_angle_beta 95.55
_cell_angle_gamma 90.028
_space_group_name_H-M_alt 'P 1'
_space_group_name_Hall 'P 1'
loop_
    _symmetry_equiv_pos_as_xyz
    x,y,z
loop_
    _atom_site_label
    _atom_site_type_symbol
    _atom_site_fract_x
    _atom_site_fract_y
    _atom_site_fract_z
    _atom_site_occupancy
    H0      H    0.29831   0.93136   0.42296   1.000
    H1      H    0.79830   0.93136   0.42296   1.000
    H2      H    0.11538   0.67273   0.42405   1.000
    H3      H    0.61537   0.67273   0.42405   1.000
    H4      H    0.12800   0.66252   0.32549   1.000
    H5      H    0.62799   0.66252   0.32549   1.000
    H6      H    0.10759   0.79206   0.53877   1.000
    H7      H    0.60758   0.79206   0.53877   1.000
    H8      H    0.36571   0.86193   0.65995   1.000
    H9      H    0.86570   0.86194   0.65995   1.000
    H10     H    0.22317   0.48545   0.18817   1.000
    H11     H    0.72315   0.48545   0.18817   1.000
    H12     H    0.20253   0.52578   0.35521   1.000
    H13     H    0.70252   0.52578   0.35521   1.000
    H14     H    0.17552   0.53668   0.45128   1.000
    H15     H    0.67550   0.53668   0.45128   1.000
    H16     H    0.44699   0.73162   0.48344   1.000
    H17     H    0.94698   0.73162   0.48344   1.000
    H18     H    0.28525   0.65648   0.51600   1.000
    H19     H    0.78524   0.65648   0.51600   1.000
    H20     H    0.26759   0.71754   0.27954   1.000
    H21     H    0.76757   0.71754   0.27954   1.000
    H22     H    0.00510   0.55276   0.39890   1.000
    H23     H    0.50508   0.55276   0.39890   1.000
    H24     H    0.05356   0.45791   0.38740   1.000
    H25     H    0.55355   0.45791   0.38740   1.000
    H26     H    0.08039   0.49154   0.25075   1.000
    H27     H    0.58038   0.49154   0.25075   1.000
    H28     H    0.02967   0.58614   0.26167   1.000
    H29     H    0.52966   0.58614   0.26167   1.000
    H30     H    0.46963   0.36654   0.26396   1.000
    H31     H    0.96962   0.36654   0.26396   1.000
    H32     H    0.35944   0.59754   0.23130   1.000
    H33     H    0.85942   0.59754   0.23130   1.000
    H34     H    0.45160   0.43133   0.07711   1.000
    H35     H    0.95158   0.43132   0.07711   1.000
    H36     H    0.13461   0.17270   0.07697   1.000
    H37     H    0.63461   0.17271   0.07690   1.000
    H38     H    0.12132   0.16213   0.17537   1.000
    H39     H    0.62131   0.16213   0.17537   1.000
    H40     H    0.14208   0.29191   0.96129   1.000
    H41     H    0.64207   0.29191   0.96129   1.000
    H42     H    0.38407   0.36192   0.84010   1.000
    H43     H    0.88405   0.36192   0.84013   1.000
    H44     H    0.02674   0.98551   0.31201   1.000
    H45     H    0.52673   0.98551   0.31201   1.000
    H46     H    0.04730   0.02540   0.14519   1.000
    H47     H    0.54729   0.02540   0.14519   1.000
    H48     H    0.07405   0.03669   0.04908   1.000
    H49     H    0.57403   0.03669   0.04908   1.000
    H50     H    0.30304   0.23118   0.01634   1.000
    H51     H    0.80303   0.23117   0.01634   1.000
    H52     H    0.46477   0.15573   0.98438   1.000
    H53     H    0.96475   0.15573   0.98438   1.000
    H54     H    0.48180   0.21771   0.22064   1.000
    H55     H    0.98178   0.21771   0.22064   1.000
    H56     H    0.24455   0.05297   0.10118   1.000
    H57     H    0.74454   0.05297   0.10118   1.000
    H58     H    0.19628   0.95792   0.11242   1.000
    H59     H    0.69627   0.95793   0.11242   1.000
    H60     H    0.16964   0.99097   0.24920   1.000
    H61     H    0.66963   0.99097   0.24928   1.000
    H62     H    0.22019   0.08573   0.23863   1.000
    H63     H    0.72018   0.08573   0.23863   1.000
    H64     H    0.28061   0.86625   0.23551   1.000
    H65     H    0.78060   0.86625   0.23550   1.000
    H66     H    0.39035   0.09743   0.26899   1.000
    H67     H    0.89034   0.09743   0.26899   1.000
    H68     H    0.20169   0.06860   0.57705   1.000
    H69     H    0.70167   0.06860   0.57705   1.000
    H70     H    0.38462   0.32722   0.57597   1.000
    H71     H    0.88460   0.32722   0.57597   1.000
    H72     H    0.37200   0.33744   0.67453   1.000
    H73     H    0.87198   0.33744   0.67453   1.000
    H74     H    0.39241   0.20790   0.46124   1.000
    H75     H    0.89239   0.20790   0.46124   1.000
    H76     H    0.13428   0.13804   0.34007   1.000
    H77     H    0.63428   0.13801   0.34006   1.000
    H78     H    0.27683   0.51451   0.81180   1.000
    H79     H    0.77682   0.51451   0.81184   1.000
    C80     C    0.96805   0.40163   0.02490   1.000
    C81     C    0.40914   0.40359   0.95676   1.000
    C82     C    0.90913   0.40360   0.95676   1.000
    H83     H    0.29746   0.47418   0.64481   1.000
    H84     H    0.79745   0.47418   0.64481   1.000
    H85     H    0.32448   0.46328   0.54874   1.000
    H86     H    0.82447   0.46328   0.54874   1.000
    H87     H    0.05300   0.26834   0.51658   1.000
    H88     H    0.55299   0.26834   0.51658   1.000
    H89     H    0.21475   0.34347   0.48397   1.000
    H90     H    0.71473   0.34347   0.48397   1.000
    H91     H    0.23241   0.28242   0.72047   1.000
    H92     H    0.73240   0.28242   0.72047   1.000
    H93     H    0.49490   0.44719   0.60105   1.000
    H94     H    0.99489   0.44719   0.60105   1.000
    H95     H    0.44643   0.54205   0.61259   1.000
    H96     H    0.94642   0.54205   0.61259   1.000
    H97     H    0.41961   0.50842   0.74927   1.000
    H98     H    0.91960   0.50842   0.74927   1.000
    H99     H    0.47032   0.41381   0.73835   1.000
    H100    H    0.97031   0.41381   0.73835   1.000
    H101    H    0.03036   0.63342   0.73606   1.000
    H102    H    0.53035   0.63342   0.73606   1.000
    H103    H    0.14056   0.40242   0.76870   1.000
    H104    H    0.64055   0.40242   0.76870   1.000
    H105    H    0.04839   0.56862   0.92291   1.000
    H106    H    0.54838   0.56862   0.92291   1.000
    C107    C    0.34671   0.44683   0.60869   1.000
    C108    C    0.84670   0.44683   0.60869   1.000
    C109    C    0.11359   0.28433   0.55419   1.000
    H110    H    0.36538   0.82725   0.92305   1.000
    H111    H    0.86536   0.82725   0.92305   1.000
    H112    H    0.37867   0.83783   0.82464   1.000
    H113    H    0.87866   0.83783   0.82460   1.000
    H114    H    0.35791   0.70805   0.03872   1.000
    H115    H    0.85790   0.70805   0.03872   1.000
    H116    H    0.11592   0.63803   0.15988   1.000
    H117    H    0.61591   0.63804   0.15988   1.000
    H118    H    0.47325   0.01445   0.68801   1.000
    H119    H    0.97324   0.01445   0.68801   1.000
    H120    H    0.45269   0.97455   0.85483   1.000
    H121    H    0.95268   0.97455   0.85483   1.000
    H122    H    0.42595   0.96326   0.95094   1.000
    H123    H    0.92593   0.96326   0.95094   1.000
    H124    H    0.19695   0.76878   0.98360   1.000
    H125    H    0.69694   0.76878   0.98360   1.000
    H126    H    0.03523   0.84422   0.01564   1.000
    H127    H    0.53521   0.84422   0.01564   1.000
    H128    H    0.01820   0.78224   0.77938   1.000
    H129    H    0.51818   0.78224   0.77938   1.000
    H130    H    0.25544   0.94698   0.89884   1.000
    H131    H    0.75543   0.94698   0.89884   1.000
    H132    H    0.30371   0.04203   0.88760   1.000
    H133    H    0.80370   0.04203   0.88760   1.000
    H134    H    0.33035   0.00000   0.75073   1.000
    H135    H    0.83034   0.00000   0.75073   1.000
    H136    H    0.27980   0.91423   0.76139   1.000
    H137    H    0.77979   0.91423   0.76139   1.000
    H138    H    0.21938   0.13371   0.76451   1.000
    H139    H    0.71937   0.13371   0.76451   1.000
    H140    H    0.10964   0.90253   0.73103   1.000
    H141    H    0.60963   0.90253   0.73103   1.000
    C142    C    0.28180   0.90169   0.47517   1.000
    C143    C    0.78178   0.90169   0.47517   1.000
    C144    C    0.34072   0.90365   0.54333   1.000
    C145    C    0.84071   0.90366   0.54333   1.000
    C146    C    0.15661   0.64333   0.38290   1.000
    C147    C    0.65660   0.64333   0.38290   1.000
    C148    C    0.17337   0.82233   0.53941   1.000
    C149    C    0.67336   0.82232   0.53941   1.000
    C150    C    0.31741   0.86257   0.60843   1.000
    C151    C    0.81740   0.86257   0.60843   1.000
    C152    C    0.19825   0.86014   0.47328   1.000
    C153    C    0.69823   0.86014   0.47328   1.000
    C154    C    0.29382   0.47801   0.21236   1.000
    C155    C    0.79381   0.47801   0.21236   1.000
    C156    C    0.23337   0.82284   0.60710   1.000
    C157    C    0.73335   0.82284   0.60710   1.000
    C158    C    0.15328   0.55312   0.39132   1.000
    C159    C    0.65327   0.55312   0.39132   1.000
    C160    C    0.38641   0.71563   0.44582   1.000
    C161    C    0.88640   0.71563   0.44582   1.000
    C162    C    0.30717   0.67833   0.46245   1.000
    C163    C    0.80716   0.67833   0.46245   1.000
    C164    C    0.29551   0.71079   0.33898   1.000
    C165    C    0.79550   0.71079   0.33898   1.000
    C166    C    0.05631   0.52010   0.36881   1.000
    C167    C    0.55630   0.52010   0.36881   1.000
    C168    C    0.03068   0.52459   0.28170   1.000
    C169    C    0.53067   0.52459   0.28170   1.000
    C170    C    0.41982   0.41317   0.25063   1.000
    C171    C    0.91981   0.41317   0.25063   1.000
    C172    C    0.36031   0.53341   0.23330   1.000
    C173    C    0.86030   0.53341   0.23330   1.000
    C174    C    0.46806   0.40162   0.02490   1.000
    C175    C    0.09307   0.14312   0.11776   1.000
    C176    C    0.59306   0.14312   0.11776   1.000
    C177    C    0.07635   0.32220   0.96065   1.000
    C178    C    0.57634   0.32220   0.96066   1.000
    C179    C    0.43236   0.36251   0.89165   1.000
    C180    C    0.93236   0.36251   0.89165   1.000
    C181    C    0.05156   0.36005   0.02678   1.000
    C182    C    0.55155   0.36006   0.02678   1.000
    C183    C    0.45612   0.97797   0.28771   1.000
    C184    C    0.95611   0.97797   0.28771   1.000
    C185    C    0.01635   0.32274   0.89297   1.000
    C186    C    0.51634   0.32275   0.89297   1.000
    C187    C    0.09642   0.05296   0.10906   1.000
    C188    C    0.59641   0.05296   0.10906   1.000
    C189    C    0.36350   0.21530   0.05414   1.000
    C190    C    0.86349   0.21530   0.05414   1.000
    C191    C    0.44274   0.17787   0.03781   1.000
    C192    C    0.94273   0.17786   0.03781   1.000
    C193    C    0.45410   0.21078   0.16110   1.000
    C194    C    0.95408   0.21078   0.16116   1.000
    C195    C    0.19347   0.02005   0.13129   1.000
    C196    C    0.69346   0.02005   0.13129   1.000
    C197    C    0.21924   0.02425   0.21834   1.000
    C198    C    0.71923   0.02425   0.21834   1.000
    C199    C    0.33029   0.91297   0.24908   1.000
    C200    C    0.83028   0.91297   0.24900   1.000
    C201    C    0.38957   0.03331   0.26684   1.000
    C202    C    0.88955   0.03331   0.26684   1.000
    C203    C    0.21821   0.09827   0.52484   1.000
    C204    C    0.71819   0.09827   0.52484   1.000
    C205    C    0.15928   0.09630   0.45668   1.000
    C206    C    0.65927   0.09630   0.45668   1.000
    C207    C    0.34339   0.35662   0.61708   1.000
    C208    C    0.84337   0.35662   0.61708   1.000
    C209    C    0.32663   0.17763   0.46059   1.000
    C210    C    0.82661   0.17764   0.46060   1.000
    C211    C    0.18258   0.13739   0.39158   1.000
    C212    C    0.68257   0.13739   0.39158   1.000
    C213    C    0.30175   0.13982   0.52673   1.000
    C214    C    0.80174   0.13982   0.52673   1.000
    C215    C    0.20617   0.52195   0.78766   1.000
    C216    C    0.70616   0.52195   0.78766   1.000
    C217    C    0.26663   0.17713   0.39291   1.000
    C218    C    0.76662   0.17712   0.39291   1.000
    C219    C    0.61358   0.28433   0.55419   1.000
    C220    C    0.19283   0.32162   0.53757   1.000
    C221    C    0.69281   0.32162   0.53757   1.000
    C222    C    0.20449   0.28917   0.66103   1.000
    C223    C    0.70447   0.28917   0.66103   1.000
    C224    C    0.44368   0.47985   0.63121   1.000
    C225    C    0.94367   0.47985   0.63121   1.000
    C226    C    0.46932   0.47537   0.71827   1.000
    C227    C    0.96931   0.47537   0.71827   1.000
    C228    C    0.08017   0.58679   0.74938   1.000
    C229    C    0.58016   0.58679   0.74938   1.000
    C230    C    0.13968   0.46655   0.76672   1.000
    C231    C    0.63967   0.46655   0.76672   1.000
    C232    C    0.03193   0.59833   0.97511   1.000
    C233    C    0.53192   0.59833   0.97511   1.000
    C234    C    0.09085   0.59636   0.04326   1.000
    C235    C    0.59084   0.59636   0.04320   1.000
    C236    C    0.40692   0.85683   0.88226   1.000
    C237    C    0.90691   0.85683   0.88226   1.000
    C238    C    0.42364   0.67776   0.03936   1.000
    C239    C    0.92363   0.67776   0.03936   1.000
    C240    C    0.06762   0.63745   0.10837   1.000
    C241    C    0.56761   0.63745   0.10830   1.000
    C242    C    0.44843   0.63990   0.97324   1.000
    C243    C    0.94841   0.63990   0.97324   1.000
    C244    C    0.04387   0.02199   0.71231   1.000
    C245    C    0.54386   0.02199   0.71231   1.000
    C246    C    0.48364   0.67722   0.10704   1.000
    C247    C    0.98363   0.67721   0.10704   1.000
    C248    C    0.40357   0.94700   0.89090   1.000
    C249    C    0.90356   0.94700   0.89090   1.000
    C250    C    0.13649   0.78465   0.94588   1.000
    C251    C    0.63648   0.78465   0.94588   1.000
    C252    C    0.05725   0.82209   0.96220   1.000
    C253    C    0.55724   0.82209   0.96220   1.000
    C254    C    0.04589   0.78917   0.83886   1.000
    C255    C    0.54588   0.78917   0.83886   1.000
    C256    C    0.30652   0.97990   0.86873   1.000
    C257    C    0.80651   0.97990   0.86873   1.000
    C258    C    0.28075   0.97571   0.78160   1.000
    C259    C    0.78074   0.97571   0.78160   1.000
    C260    C    0.16970   0.08699   0.75094   1.000
    C261    C    0.66969   0.08699   0.75094   1.000
    C262    C    0.11043   0.96666   0.73318   1.000
    C263    C    0.61041   0.96666   0.73318   1.000
    N264    N    0.25015   0.67571   0.39423   1.000
    N265    N    0.75013   0.67571   0.39423   1.000
    N266    N    0.37852   0.73540   0.36840   1.000
    N267    N    0.87851   0.73540   0.36840   1.000
    N268    N    0.33182   0.40306   0.22355   1.000
    N269    N    0.83181   0.40306   0.22355   1.000
    N270    N    0.43964   0.49145   0.25747   1.000
    N271    N    0.93963   0.49145   0.25747   1.000
    N272    N    0.49957   0.17545   0.10615   1.000
    N273    N    0.99955   0.17545   0.10615   1.000
    N274    N    0.37121   0.23536   0.13149   1.000
    N275    N    0.87120   0.23536   0.13149   1.000
    N276    N    0.41826   0.90297   0.27626   1.000
    N277    N    0.91825   0.90297   0.27626   1.000
    N278    N    0.31034   0.99122   0.24244   1.000
    N279    N    0.81033   0.99122   0.24244   1.000
    N280    N    0.24985   0.32424   0.60579   1.000
    N281    N    0.74984   0.32424   0.60579   1.000
    N282    N    0.12148   0.26456   0.63161   1.000
    N283    N    0.62146   0.26456   0.63161   1.000
    N284    N    0.16818   0.59690   0.77647   1.000
    N285    N    0.66817   0.59690   0.77647   1.000
    N286    N    0.06035   0.50851   0.74254   1.000
    N287    N    0.56034   0.50851   0.74254   1.000
    N288    N    0.00043   0.82450   0.89387   1.000
    N289    N    0.50041   0.82450   0.89387   1.000
    N290    N    0.12878   0.76460   0.86850   1.000
    N291    N    0.62877   0.76460   0.86850   1.000
    N292    N    0.08173   0.09699   0.72375   1.000
    N293    N    0.58172   0.09699   0.72375   1.000
    N294    N    0.18965   0.00874   0.75758   1.000
    N295    N    0.68964   0.00874   0.75758   1.000
loop_
    _geom_bond_atom_site_label_1
    _geom_bond_atom_site_label_2
    _geom_bond_distance
    _geom_bond_site_symmetry_2
    _ccdc_geom_bond_type
    H127   C253      1.08234  1_554   S
    H126   C252      1.08234  1_554   S
    H51    C190      1.08326      .   S
    H50    C189      1.08326      .   S
    C80    C181      1.40425  1_655   S
    C80    H35       1.08731      .   S
    C80    C82       1.39929  1_554   S
    C174   C182      1.40395      .   S
    C174   H34       1.08737      .   S
    C174   C81       1.39929  1_554   S
    C182   C178      1.39741  1_554   S
    C181   C177      1.39748  1_554   S
    C192   C190      1.37195      .   S
    C192   N273      1.38625      .   S
    C192   H53       1.08220  1_554   S
    C191   C189      1.37195      .   S
    C191   N272      1.38624      .   S
    C191   H52       1.08219  1_554   S
    H114   C238      1.08624      .   S
    H115   C239      1.08623      .   S
    C238   C246      1.40107      .   S
    C238   C242      1.39740  1_554   S
    C239   C247      1.40105      .   S
    C239   C243      1.39740  1_554   S
    C235   C241      1.40085      .   S
    C235   C233      1.39860  1_554   S
    C234   C240      1.40099      .   S
    C234   C232      1.39943  1_554   S
    H49    C188      1.10106      .   S
    H48    C187      1.10106      .   S
    C190   N275      1.38619      .   S
    C189   N274      1.38618      .   S
    H37    C176      1.09962      .   S
    H36    C175      1.09876      .   S
    H56    C195      1.10279      .   S
    H57    C196      1.10280      .   S
    N273   C175      1.46584  1_655   S
    N273   C194      1.35718      .   S
    N272   C176      1.46553      .   S
    N272   C193      1.35639      .   S
    C247   C240      1.39606  1_655   S
    C246   C241      1.39584      .   S
    C241   H117      1.08865      .   S
    C240   H116      1.08770      .   S
    C188   C176      1.53055      .   S
    C188   C196      1.53602      .   S
    C188   H47       1.10241      .   S
    C187   C175      1.53055      .   S
    C187   C195      1.53604      .   S
    C187   H46       1.10241      .   S
    H59    C196      1.10101  1_565   S
    H58    C195      1.10101  1_565   S
    C176   H39       1.09733      .   S
    C175   H38       1.09733      .   S
    C195   C197      1.53157      .   S
    C196   C198      1.53157      .   S
    N274   C193      1.33495      .   S
    N275   C194      1.33526      .   S
    C193   H54       1.08459      .   S
    C194   H55       1.08363      .   S
    H11    C155      1.08321      .   S
    H10    C154      1.08322      .   S
    C154   N268      1.38756      .   S
    C154   C172      1.37118      .   S
    C155   N269      1.38755      .   S
    C155   C173      1.37118      .   S
    C197   H62       1.09606      .   S
    C197   N278      1.46561  1_545   S
    C197   H60       1.09763  1_545   S
    C198   H63       1.09607      .   S
    C198   N279      1.46561  1_545   S
    C198   H61       1.09840  1_545   S
    N268   C170      1.33583      .   S
    N269   C171      1.33583      .   S
    H32    C172      1.08295      .   S
    H33    C173      1.08293      .   S
    C172   N270      1.38793      .   S
    C173   N271      1.38794      .   S
    H65    C200      1.08138      .   S
    H64    C199      1.08156      .   S
    N278   C199      1.35500      .   S
    N278   C201      1.38802  1_565   S
    N279   C200      1.35492      .   S
    N279   C202      1.38801  1_565   S
    C200   N277      1.33617      .   S
    C199   N276      1.33582      .   S
    C170   N270      1.35500      .   S
    C170   H30       1.08155      .   S
    C171   N271      1.35499      .   S
    C171   H31       1.08156      .   S
    H26    C168      1.09800      .   S
    H27    C169      1.09801      .   S
    N270   C169      1.46526      .   S
    N271   C168      1.46557  1_655   S
    H28    C168      1.09581      .   S
    H29    C169      1.09581      .   S
    C202   H67       1.08290      .   S
    C202   C184      1.37145  1_545   S
    C201   H66       1.08292      .   S
    C201   C183      1.37144  1_545   S
    N277   C184      1.38749      .   S
    N276   C183      1.38749      .   S
    H20    C164      1.08364      .   S
    H21    C165      1.08364      .   S
    C169   C167      1.53253      .   S
    C168   C166      1.53254      .   S
    C183   H45       1.08320      .   S
    C184   H44       1.08351  1_655   S
    H4     C146      1.09682      .   S
    H5     C147      1.09682      .   S
    C165   N267      1.33535      .   S
    C165   N265      1.35735      .   S
    C164   N266      1.33534      .   S
    C164   N264      1.35736      .   S
    H77    C212      1.08781      .   S
    H76    C211      1.08778      .   S
    H13    C159      1.10230      .   S
    H12    C158      1.10229      .   S
    N267   C161      1.38621      .   S
    N266   C160      1.38621      .   S
    C167   H25       1.10055      .   S
    C167   C159      1.53602      .   S
    C167   H23       1.10222      .   S
    C166   H24       1.10057      .   S
    C166   C158      1.53601      .   S
    C166   H22       1.10222      .   S
    C146   C158      1.53073      .   S
    C146   N264      1.46562      .   S
    C146   H2        1.09924      .   S
    C147   C159      1.53073      .   S
    C147   N265      1.46563      .   S
    C147   H3        1.09924      .   S
    C158   H14       1.10119      .   S
    C159   H15       1.10119      .   S
    C212   C218      1.39583      .   S
    C212   C206      1.40103      .   S
    C211   C217      1.39583      .   S
    C211   C205      1.40107      .   S
    C217   C209      1.40110      .   S
    C218   C210      1.40111      .   S
    N265   C163      1.38615      .   S
    N264   C162      1.38616      .   S
    H0     C142      1.08726      .   S
    H1     C143      1.08728      .   S
    C160   C162      1.37187      .   S
    C160   H16       1.08323      .   S
    C161   C163      1.37187      .   S
    C161   H17       1.08324      .   S
    C206   C204      1.39954      .   S
    C205   C203      1.39957      .   S
    C209   H74       1.08623      .   S
    C209   C213      1.39763      .   S
    C210   H75       1.08625      .   S
    C210   C214      1.39754      .   S
    C162   H18       1.08171      .   S
    C163   H19       1.08171      .   S
    C153   C143      1.40388      .   S
    C153   C149      1.39754      .   S
    C152   C142      1.40387      .   S
    C152   C148      1.39751      .   S
    C143   C145      1.39954      .   S
    C142   C144      1.39955      .   S
    H89    C220      1.08249      .   S
    H90    C221      1.08250      .   S
    H88    C219      1.08315      .   S
    H87    C109      1.08315      .   S
    C204   C214      1.40388      .   S
    C204   H69       1.08728      .   S
    C203   C213      1.40386      .   S
    C203   H68       1.08726      .   S
    C221   C219      1.37182      .   S
    C221   N281      1.38615      .   S
    C220   C109      1.37182      .   S
    C220   N280      1.38614      .   S
    H7     C149      1.08624      .   S
    H6     C148      1.08624      .   S
    C148   C156      1.40118      .   S
    C149   C157      1.40114      .   S
    C145   C151      1.40105      .   S
    C144   C150      1.40104      .   S
    H85    C107      1.10103      .   S
    H86    C108      1.10103      .   S
    C219   N283      1.38621      .   S
    C109   N282      1.38620      .   S
    H71    C208      1.09874      .   S
    H70    C207      1.09874      .   S
    H94    C225      1.10289      .   S
    H93    C224      1.10288      .   S
    N281   C208      1.46560      .   S
    N281   C223      1.35722      .   S
    N280   C207      1.46561      .   S
    N280   C222      1.35722      .   S
    C156   C150      1.39583      .   S
    C157   C151      1.39583      .   S
    C150   H8        1.08785      .   S
    C151   H9        1.08783      .   S
    C107   C207      1.53066      .   S
    C107   C224      1.53606      .   S
    C107   H83       1.10240      .   S
    C108   C208      1.53067      .   S
    C108   C225      1.53604      .   S
    C108   H84       1.10239      .   S
    H96    C225      1.10072      .   S
    H95    C224      1.10071      .   S
    C207   H72       1.09743      .   S
    C208   H73       1.09743      .   S
    C225   C227      1.53169      .   S
    C224   C226      1.53169      .   S
    N283   C223      1.33534      .   S
    N282   C222      1.33532      .   S
    C222   H91       1.08363      .   S
    C223   H92       1.08363      .   S
    H118   C245      1.08319      .   S
    H119   C244      1.08352  1_655   S
    C244   N292      1.38747      .   S
    C244   C262      1.37144  1_545   S
    C245   N293      1.38747      .   S
    C245   C263      1.37145  1_545   S
    C226   H99       1.09608      .   S
    C226   N287      1.46542      .   S
    C226   H97       1.09850      .   S
    C227   H100      1.09608      .   S
    C227   N286      1.46572  1_655   S
    C227   H98       1.09848      .   S
    N292   C260      1.33587      .   S
    N293   C261      1.33587      .   S
    H140   C262      1.08290      .   S
    H141   C263      1.08290      .   S
    C263   N295      1.38802  1_565   S
    C262   N294      1.38803  1_565   S
    H102   C229      1.08154      .   S
    H101   C228      1.08154      .   S
    N287   C229      1.35500      .   S
    N287   C231      1.38798      .   S
    N286   C228      1.35500      .   S
    N286   C230      1.38798      .   S
    C229   N285      1.33588      .   S
    C228   N284      1.33588      .   S
    H134   C258      1.02848  1_545   S
    H135   C259      1.02848  1_545   S
    C260   N294      1.35502      .   S
    C260   H138      1.08155      .   S
    C261   N295      1.35500      .   S
    C261   H139      1.08155      .   S
    N294   C258      1.46532  1_545   S
    N295   C259      1.46533  1_545   S
    H137   C259      1.09562      .   S
    H136   C258      1.09562      .   S
    C231   H104      1.08293      .   S
    C231   C216      1.37119      .   S
    C230   H103      1.08293      .   S
    C230   C215      1.37118      .   S
    N285   C216      1.38757      .   S
    N284   C215      1.38756      .   S
    H128   C254      1.08362      .   S
    H129   C255      1.08362      .   S
    C258   C256      1.53292      .   S
    C259   C257      1.53292      .   S
    C216   H79       1.08316      .   S
    C215   H78       1.08295      .   S
    H113   C237      1.09809      .   S
    H112   C236      1.09748      .   S
    C254   N290      1.33510      .   S
    C254   N288      1.35716      .   S
    C255   N291      1.33512      .   S
    C255   N289      1.35716      .   S
    H42    C179      1.08822      .   S
    H43    C180      1.08784      .   S
    H121   C249      1.10174      .   S
    H120   C248      1.10174      .   S
    N291   C251      1.38668      .   S
    N290   C250      1.38668      .   S
    C257   H133      1.10100  1_565   S
    C257   C249      1.53587      .   S
    C257   H131      1.10280      .   S
    C256   H132      1.10099  1_565   S
    C256   C248      1.53586      .   S
    C256   H130      1.10281      .   S
    C237   C249      1.53044      .   S
    C237   N288      1.46586  1_655   S
    C237   H111      1.09876      .   S
    C236   C248      1.53042      .   S
    C236   N289      1.46552      .   S
    C236   H110      1.09877      .   S
    C249   H123      1.10202      .   S
    C248   H122      1.10203      .   S
    C180   C185      1.39606  1_655   S
    C180   C82       1.40097      .   S
    C179   C186      1.39576      .   S
    C179   C81       1.40097      .   S
    C186   C178      1.40119      .   S
    C185   C177      1.40110      .   S
    N288   C252      1.38611      .   S
    N289   C253      1.38611      .   S
    H105   C232      1.08722      .   S
    H106   C233      1.08722      .   S
    C250   C252      1.37189      .   S
    C250   H124      1.08252      .   S
    C251   C253      1.37189      .   S
    C251   H125      1.08252      .   S
    C177   H40       1.08624      .   S
    C178   H41       1.08625      .   S
    C243   C232      1.40426  1_655   S
    C242   C233      1.40396      .   S
