# CIF file generated by openbabel 2.4.90, see http://openbabel.sf.net
data_I
_chemical_name_common ''
_cell_length_a 14.594
_cell_length_b 16.877
_cell_length_c 17.459
_cell_angle_alpha 90.002
_cell_angle_beta 95.55
_cell_angle_gamma 90.028
_space_group_name_H-M_alt 'P 1'
_space_group_name_Hall 'P 1'
loop_
    _symmetry_equiv_pos_as_xyz
    x,y,z
loop_
    _atom_site_label
    _atom_site_type_symbol
    _atom_site_fract_x
    _atom_site_fract_y
    _atom_site_fract_z
    _atom_site_occupancy
    Zn0     Zn   0.97276   0.79835   0.31263   1.000
    Zn1     Zn   0.27719   0.29840   0.18727   1.000
    Zn2     Zn   0.77717   0.29840   0.18727   1.000
    Zn3     Zn   0.02722   0.20162   0.68730   1.000
    Zn4     Zn   0.52721   0.20162   0.68730   1.000
    Zn5     Zn   0.22281   0.70157   0.81274   1.000
    Zn6     Zn   0.72279   0.70156   0.81274   1.000
    Zn7     Zn   0.47277   0.79835   0.31263   1.000
    C8      C    0.29357   0.21966   0.32288   1.000
    C9      C    0.79356   0.21965   0.32288   1.000
    C10     C    0.13595   0.85616   0.39924   1.000
    C11     C    0.63594   0.85617   0.39924   1.000
    C12     C    0.20641   0.78031   0.67713   1.000
    C13     C    0.70640   0.78031   0.67713   1.000
    C14     C    0.11393   0.35613   0.10078   1.000
    C15     C    0.61392   0.35614   0.10070   1.000
    C16     C    0.04324   0.28029   0.82290   1.000
    C17     C    0.54323   0.28029   0.82290   1.000
    C18     C    0.36404   0.14380   0.60070   1.000
    C19     C    0.86403   0.14380   0.60070   1.000
    C20     C    0.38606   0.64382   0.89923   1.000
    C21     C    0.88605   0.64382   0.89923   1.000
    C22     C    0.45675   0.71968   0.17711   1.000
    C23     C    0.95674   0.71968   0.17711   1.000
    O24     O    0.06260   0.81273   0.40343   1.000
    O25     O    0.56259   0.81273   0.40340   1.000
    O26     O    0.12533   0.75697   0.68001   1.000
    O27     O    0.62532   0.75696   0.68001   1.000
    O28     O    0.15579   0.89174   0.34039   1.000
    O29     O    0.65578   0.89174   0.34039   1.000
    O30     O    0.27169   0.77056   0.73304   1.000
    O31     O    0.77168   0.77056   0.73304   1.000
    O32     O    0.18725   0.31272   0.09657   1.000
    O33     O    0.68724   0.31271   0.09657   1.000
    O34     O    0.12432   0.25700   0.81997   1.000
    O35     O    0.62431   0.25700   0.81997   1.000
    O36     O    0.09419   0.39176   0.15963   1.000
    O37     O    0.59417   0.39176   0.15963   1.000
    O38     O    0.47793   0.27054   0.76698   1.000
    O39     O    0.97792   0.27054   0.76698   1.000
    O40     O    0.43740   0.18724   0.59658   1.000
    O41     O    0.93738   0.18724   0.59658   1.000
    O42     O    0.37466   0.24300   0.30000   1.000
    O43     O    0.87464   0.24301   0.32000   1.000
    O44     O    0.34420   0.10823   0.65962   1.000
    O45     O    0.84419   0.10823   0.65962   1.000
    O46     O    0.22829   0.22941   0.26697   1.000
    O47     O    0.72828   0.22941   0.26697   1.000
    O48     O    0.31275   0.68725   0.90344   1.000
    O49     O    0.81274   0.68725   0.90344   1.000
    O50     O    0.37567   0.74297   0.18004   1.000
    O51     O    0.87566   0.74297   0.18004   1.000
    O52     O    0.40581   0.60821   0.84038   1.000
    O53     O    0.90580   0.60821   0.84038   1.000
    O54     O    0.02206   0.72943   0.23303   1.000
    O55     O    0.52205   0.72943   0.23303   1.000
loop_
    _geom_bond_atom_site_label_1
    _geom_bond_atom_site_label_2
    _geom_bond_distance
    _geom_bond_site_symmetry_2
    _ccdc_geom_bond_type
    O32    C14       1.30515      .   S
    O32    Zn1       1.97153      .   S
    O33    C15       1.30496      .   S
    O33    Zn2       1.97154      .   S
    C15    O37       1.24915      .   S
    C14    O36       1.24803      .   S
    C23    O51       1.25279      .   S
    C23    O54       1.30726  1_655   S
    C22    O50       1.25279      .   S
    C22    O55       1.30701      .   S
    Zn2    O47       1.99815      .   S
    Zn1    O46       1.99819      .   S
    O55    Zn7       1.99891      .   S
    O54    Zn0       1.99906  1_455   S
    O47    C9        1.30693      .   S
    O46    C8        1.30682      .   S
    O42    C8        1.34391      .   S
    Zn0    O24       1.97195  1_655   S
    Zn7    O25       1.97137      .   S
    O43    C9        1.25267      .   S
    O29    C11       1.24795      .   S
    O28    C10       1.24797      .   S
    C11    O25       1.30502      .   S
    C10    O24       1.30508      .   S
    O40    C18       1.30493      .   S
    O40    Zn4       1.97070      .   S
    O41    C19       1.30493      .   S
    O41    Zn3       1.97092  1_655   S
    C18    O44       1.24899      .   S
    C19    O45       1.24897      .   S
    C13    O27       1.25266      .   S
    C13    O31       1.30685      .   S
    C12    O26       1.25265      .   S
    C12    O30       1.30683      .   S
    Zn4    O38       1.99995      .   S
    Zn3    O39       2.00014  1_455   S
    O30    Zn5       1.99813      .   S
    O31    Zn6       1.99814      .   S
    O39    C16       1.30723  1_655   S
    O38    C17       1.30702      .   S
    Zn5    O48       1.97158      .   S
    Zn6    O49       1.97158      .   S
    O34    C16       1.25278      .   S
    O35    C17       1.25279      .   S
    O52    C20       1.24796      .   S
    O53    C21       1.24797      .   S
    C21    O49       1.30514      .   S
    C20    O48       1.30514      .   S
