# CIF file generated by openbabel 2.4.90, see http://openbabel.sf.net
data_I
_chemical_name_common ''
_cell_length_a 14.594
_cell_length_b 16.877
_cell_length_c 17.459
_cell_angle_alpha 90.002
_cell_angle_beta 95.55
_cell_angle_gamma 90.028
_space_group_name_H-M_alt 'P 1'
_space_group_name_Hall 'P 1'
loop_
    _symmetry_equiv_pos_as_xyz
    x,y,z
loop_
    _atom_site_label
    _atom_site_type_symbol
    _atom_site_fract_x
    _atom_site_fract_y
    _atom_site_fract_z
    _atom_site_occupancy
    N0      N    0.34666   0.92421   0.83660   1.000
    N1      N    0.09651   0.57562   0.33675   1.000
    N2      N    0.00759   0.63797   0.04088   1.000
    N3      N    0.49239   0.36199   0.95914   1.000
    O4      O    0.34016   0.44639   0.97779   1.000
    N5      N    0.50759   0.63797   0.04086   1.000
    N6      N    0.99239   0.36199   0.95914   1.000
    O7      O    0.65982   0.55356   0.02222   1.000
    N8      N    0.59650   0.57562   0.33675   1.000
    N9      N    0.90348   0.42434   0.66325   1.000
    N10     N    0.40348   0.42434   0.66325   1.000
    N11     N    0.24261   0.13790   0.45908   1.000
    N12     N    0.75738   0.86206   0.54093   1.000
    O13     O    0.90975   0.94643   0.52226   1.000
    N14     N    0.74259   0.13790   0.45908   1.000
    N15     N    0.25739   0.86206   0.54093   1.000
    O16     O    0.59023   0.05353   0.47775   1.000
    N17     N    0.84666   0.92421   0.83660   1.000
    N18     N    0.15332   0.07542   0.16341   1.000
    N19     N    0.65332   0.07543   0.16340   1.000
    Zr20    Zr   0.77583   0.70696   0.79228   1.000
    O21     O    0.64352   0.76780   0.81545   1.000
    O22     O    0.66265   0.62187   0.76061   1.000
    O23     O    0.75723   0.76939   0.69190   1.000
    O24     O    0.86912   0.67344   0.89042   1.000
    Zr25    Zr   0.27584   0.70696   0.79228   1.000
    O26     O    0.14353   0.76780   0.81544   1.000
    O27     O    0.16266   0.62187   0.76061   1.000
    O28     O    0.25724   0.76939   0.69190   1.000
    O29     O    0.36913   0.67344   0.89042   1.000
    Zr30    Zr   0.47405   0.20696   0.70772   1.000
    O31     O    0.38090   0.17341   0.60956   1.000
    O32     O    0.49257   0.26936   0.80813   1.000
    O33     O    0.60648   0.26784   0.68454   1.000
    O34     O    0.58730   0.12186   0.73939   1.000
    Zr35    Zr   0.72414   0.29301   0.20772   1.000
    O36     O    0.85645   0.23208   0.18456   1.000
    O37     O    0.83732   0.37809   0.23940   1.000
    O38     O    0.74274   0.23058   0.30810   1.000
    O39     O    0.63085   0.32653   0.10958   1.000
    Zr40    Zr   0.52594   0.79301   0.29226   1.000
    O41     O    0.61908   0.82656   0.39043   1.000
    O42     O    0.41268   0.87803   0.26059   1.000
    O43     O    0.39351   0.73213   0.31545   1.000
    O44     O    0.50741   0.73061   0.19187   1.000
    Zr45    Zr   0.97404   0.20696   0.70772   1.000
    O46     O    0.08731   0.12186   0.73939   1.000
    O47     O    0.10648   0.26784   0.68454   1.000
    O48     O    0.99257   0.26936   0.80813   1.000
    O49     O    0.88089   0.17341   0.60956   1.000
    Zr50    Zr   0.02594   0.79301   0.29227   1.000
    O51     O    0.11909   0.82656   0.39043   1.000
    O52     O    0.91267   0.87803   0.26060   1.000
    O53     O    0.89350   0.73213   0.31545   1.000
    O54     O    0.00741   0.73061   0.19187   1.000
    Zr55    Zr   0.22415   0.29301   0.20487   1.000
    O56     O    0.24275   0.23058   0.30668   1.000
    O57     O    0.13086   0.32653   0.10817   1.000
    O58     O    0.35646   0.23208   0.18313   1.000
    O59     O    0.33733   0.37809   0.23798   1.000
loop_
    _geom_bond_atom_site_label_1
    _geom_bond_atom_site_label_2
    _geom_bond_distance
    _geom_bond_site_symmetry_2
    _ccdc_geom_bond_type
    N2     O4        6.02270  1_554   S
    N3     O4        2.68595      .   S
    N6     O7        6.02262  1_556   S
    N5     O7        2.68595      .   S
    N11    O13       6.02310  1_445   S
    N12    O13       2.68616      .   S
    N15    O16       6.02287  1_565   S
    N14    O16       2.68609      .   S
    Zr20   O21       2.25811      .   S
    N0     O21       5.11810      .   S
    Zr20   O22       2.21738      .   S
    N10    O22       5.20122      .   S
    Zr20   O23       2.04048      .   S
    N12    O23       3.06515      .   S
    Zr20   O24       2.15847      .   S
    N2     O24       3.21198  1_454   S
    Zr25   O26       2.25816      .   S
    N17    O26       5.11825  1_655   S
    Zr25   O27       2.21741      .   S
    N9     O27       5.20135  1_655   S
    Zr25   O28       2.04048      .   S
    N15    O28       3.06515      .   S
    Zr25   O29       2.15839      .   S
    N5     O29       3.21176  1_554   S
    Zr30   O31       2.15740      .   S
    N11    O31       3.21062      .   S
    Zr30   O32       2.04034      .   S
    N3     O32       3.06527      .   S
    Zr30   O33       2.25922      .   S
    N9     O33       5.11880      .   S
    Zr30   O34       2.21948      .   S
    N17    O34       5.20610  1_565   S
    Zr35   O36       2.25881      .   S
    N18    O36       5.12040  1_455   S
    Zr35   O37       2.21742      .   S
    N1     O37       5.20131  1_455   S
    Zr35   O38       2.04060      .   S
    N14    O38       3.06527      .   S
    Zr35   O39       2.15845      .   S
    N3     O39       3.21168  1_556   S
    Zr40   O41       2.15745      .   S
    N12    O41       3.21091      .   S
    Zr40   O42       2.21858      .   S
    N18    O42       5.20335  1_545   S
    Zr40   O43       2.25925      .   S
    N1     O43       5.11888      .   S
    Zr40   O44       2.04022      .   S
    N5     O44       3.06527      .   S
    Zr45   O46       2.21956  1_655   S
    N0     O46       5.20614  1_565   S
    Zr45   O47       2.25930  1_655   S
    N10    O47       5.11882      .   S
    Zr45   O48       2.04034      .   S
    N6     O48       3.06529      .   S
    Zr45   O49       2.15744      .   S
    N14    O49       3.21067      .   S
    Zr50   O51       2.15746      .   S
    N15    O51       3.21091      .   S
    Zr50   O52       2.21864  1_455   S
    N19    O52       5.20339  1_545   S
    Zr50   O53       2.25931  1_455   S
    N8     O53       5.11891      .   S
    Zr50   O54       2.04021      .   S
    N2     O54       3.06515      .   S
    Zr55   O56       2.06163      .   S
    N11    O56       3.08667      .   S
    Zr55   O57       2.14022      .   S
    N6     O57       3.19311  1_656   S
    Zr55   O58       2.25238      .   S
    N19    O58       5.11648      .   S
    Zr55   O59       2.22191      .   S
    N8     O59       5.20760      .   S
