# CIF file generated by openbabel 2.4.90, see http://openbabel.sf.net
data_I
_chemical_name_common ''
_cell_length_a 14.594
_cell_length_b 16.877
_cell_length_c 17.459
_cell_angle_alpha 90.002
_cell_angle_beta 95.55
_cell_angle_gamma 90.028
_space_group_name_H-M_alt 'P 1'
_space_group_name_Hall 'P 1'
loop_
    _symmetry_equiv_pos_as_xyz
    x,y,z
loop_
    _atom_site_label
    _atom_site_type_symbol
    _atom_site_fract_x
    _atom_site_fract_y
    _atom_site_fract_z
    _atom_site_occupancy
    Zr0     Zr   0.47277   0.79835   0.31263   1.000
    Zr1     Zr   0.97276   0.79835   0.31263   1.000
    Zr2     Zr   0.27719   0.29840   0.18727   1.000
    Zr3     Zr   0.77717   0.29840   0.18727   1.000
    Zr4     Zr   0.02722   0.20162   0.68730   1.000
    Zr5     Zr   0.52721   0.20162   0.68730   1.000
    Zr6     Zr   0.22281   0.70157   0.81274   1.000
    Zr7     Zr   0.72279   0.70156   0.81274   1.000
    Zr8     Zr   0.13595   0.85616   0.39924   1.000
    Zr9     Zr   0.63594   0.85617   0.39924   1.000
    Zr10    Zr   0.20641   0.78031   0.67713   1.000
    Zr11    Zr   0.70640   0.78031   0.67713   1.000
    Zr12    Zr   0.11393   0.35613   0.10078   1.000
    Zr13    Zr   0.61392   0.35614   0.10070   1.000
    Zr14    Zr   0.04324   0.28029   0.82290   1.000
    Zr15    Zr   0.54323   0.28029   0.82290   1.000
    Zr16    Zr   0.36404   0.14380   0.60070   1.000
    Zr17    Zr   0.86403   0.14380   0.60070   1.000
    Zr18    Zr   0.29357   0.21966   0.32288   1.000
    Zr19    Zr   0.79356   0.21965   0.32288   1.000
    Zr20    Zr   0.38606   0.64382   0.89923   1.000
    Zr21    Zr   0.88605   0.64382   0.89923   1.000
    Zr22    Zr   0.45675   0.71968   0.17711   1.000
    Zr23    Zr   0.95674   0.71968   0.17711   1.000
    Zr24    Zr   0.06260   0.81273   0.40343   1.000
    Zr25    Zr   0.56259   0.81273   0.40340   1.000
    Zr26    Zr   0.12533   0.75697   0.68001   1.000
    Zr27    Zr   0.62532   0.75696   0.68001   1.000
    Zr28    Zr   0.15579   0.89174   0.34039   1.000
    Zr29    Zr   0.65578   0.89174   0.34039   1.000
    Zr30    Zr   0.27169   0.77056   0.73304   1.000
    Zr31    Zr   0.77168   0.77056   0.73304   1.000
    Zr32    Zr   0.18725   0.31272   0.09657   1.000
    Zr33    Zr   0.68724   0.31271   0.09657   1.000
    Zr34    Zr   0.12432   0.25700   0.81997   1.000
    Zr35    Zr   0.62431   0.25700   0.81997   1.000
    Zr36    Zr   0.09419   0.39176   0.15963   1.000
    Zr37    Zr   0.59417   0.39176   0.15963   1.000
    Zr38    Zr   0.47793   0.27054   0.76698   1.000
    Zr39    Zr   0.97792   0.27054   0.76698   1.000
    Zr40    Zr   0.43740   0.18724   0.59658   1.000
    Zr41    Zr   0.93738   0.18724   0.59658   1.000
    Zr42    Zr   0.37466   0.24300   0.30000   1.000
    Zr43    Zr   0.87464   0.24301   0.32000   1.000
    Zr44    Zr   0.34420   0.10823   0.65962   1.000
    Zr45    Zr   0.84419   0.10823   0.65962   1.000
    Zr46    Zr   0.22829   0.22941   0.26697   1.000
    Zr47    Zr   0.72828   0.22941   0.26697   1.000
    Zr48    Zr   0.31275   0.68725   0.90344   1.000
    Zr49    Zr   0.81274   0.68725   0.90344   1.000
    Zr50    Zr   0.37567   0.74297   0.18004   1.000
    Zr51    Zr   0.87566   0.74297   0.18004   1.000
    Zr52    Zr   0.40581   0.60821   0.84038   1.000
    Zr53    Zr   0.90580   0.60821   0.84038   1.000
    Zr54    Zr   0.02206   0.72943   0.23303   1.000
    Zr55    Zr   0.52205   0.72943   0.23303   1.000
    O56     O    0.15059   0.33443   0.09867   1.000
    O57     O    0.23222   0.30556   0.14192   1.000
    O58     O    0.65058   0.33443   0.09863   1.000
    O59     O    0.73221   0.30556   0.14192   1.000
    O60     O    0.60405   0.37395   0.13016   1.000
    O61     O    0.10406   0.37395   0.13020   1.000
    O62     O    0.91620   0.73132   0.17857   1.000
    O63     O    0.98940   0.72455   0.20507   1.000
    O64     O    0.41621   0.73132   0.17857   1.000
    O65     O    0.48940   0.72455   0.20507   1.000
    O66     O    0.75273   0.26391   0.22712   1.000
    O67     O    0.25274   0.26390   0.22712   1.000
    O68     O    0.49741   0.76389   0.27283   1.000
    O69     O    0.99741   0.76389   0.27283   1.000
    O70     O    0.76092   0.22453   0.29492   1.000
    O71     O    0.26093   0.22453   0.29492   1.000
    O72     O    0.33412   0.23133   0.31144   1.000
    O73     O    0.01768   0.80554   0.35803   1.000
    O74     O    0.51768   0.80554   0.35801   1.000
    O75     O    0.83410   0.23133   0.32144   1.000
    O76     O    0.64586   0.87395   0.36981   1.000
    O77     O    0.14587   0.87395   0.36981   1.000
    O78     O    0.59926   0.83445   0.40132   1.000
    O79     O    0.09927   0.83445   0.40133   1.000
    O80     O    0.40072   0.16552   0.59864   1.000
    O81     O    0.48231   0.19443   0.64194   1.000
    O82     O    0.90071   0.16552   0.59864   1.000
    O83     O    0.98230   0.19443   0.64194   1.000
    O84     O    0.35412   0.12601   0.63016   1.000
    O85     O    0.85411   0.12602   0.63016   1.000
    O86     O    0.66586   0.76864   0.67857   1.000
    O87     O    0.73904   0.77544   0.70508   1.000
    O88     O    0.16587   0.76864   0.67857   1.000
    O89     O    0.23905   0.77544   0.70508   1.000
    O90     O    0.50257   0.23608   0.72714   1.000
    O91     O    0.00257   0.23608   0.72714   1.000
    O92     O    0.24725   0.73606   0.77289   1.000
    O93     O    0.74724   0.73606   0.77289   1.000
    O94     O    0.01058   0.27542   0.79494   1.000
    O95     O    0.51058   0.27542   0.79494   1.000
    O96     O    0.26778   0.69441   0.85809   1.000
    O97     O    0.76777   0.69441   0.85809   1.000
    O98     O    0.08378   0.26864   0.82143   1.000
    O99     O    0.58377   0.26865   0.82143   1.000
    O100    O    0.39594   0.62602   0.86980   1.000
    O101    O    0.89593   0.62602   0.86980   1.000
    O102    O    0.84939   0.66554   0.90133   1.000
    O103    O    0.34940   0.66554   0.90133   1.000
    N104    N    0.34666   0.92421   0.83660   1.000
    O105    O    0.20057   0.03676   0.77106   1.000
    O106    O    0.51122   0.82865   0.83861   1.000
    N107    N    0.09651   0.57562   0.33675   1.000
    O108    O    0.95050   0.46318   0.27108   1.000
    O109    O    0.26108   0.67125   0.33863   1.000
    N110    N    0.00759   0.63797   0.04088   1.000
    O111    O    0.96241   0.63992   0.98856   1.000
    O112    O    0.98888   0.66821   0.09148   1.000
    N113    N    0.49239   0.36199   0.95914   1.000
    O114    O    0.53757   0.36004   0.01144   1.000
    O115    O    0.51109   0.33175   0.90854   1.000
    O116    O    0.34016   0.44639   0.97779   1.000
    N117    N    0.50759   0.63797   0.04086   1.000
    O118    O    0.48889   0.66821   0.09147   1.000
    O119    O    0.46241   0.63992   0.98855   1.000
    N120    N    0.99239   0.36199   0.95914   1.000
    O121    O    0.01109   0.33175   0.90854   1.000
    O122    O    0.03757   0.36004   0.01146   1.000
    O123    O    0.65982   0.55356   0.02222   1.000
    N124    N    0.59650   0.57562   0.33675   1.000
    O125    O    0.45050   0.46318   0.27108   1.000
    O126    O    0.76107   0.67125   0.33863   1.000
    N127    N    0.90348   0.42434   0.66325   1.000
    O128    O    0.04948   0.53679   0.72893   1.000
    O129    O    0.73891   0.32871   0.66135   1.000
    N130    N    0.40348   0.42434   0.66325   1.000
    O131    O    0.54948   0.53679   0.72893   1.000
    O132    O    0.23892   0.32871   0.66135   1.000
    N133    N    0.24261   0.13790   0.45908   1.000
    O134    O    0.28775   0.13985   0.51140   1.000
    O135    O    0.26135   0.16815   0.40849   1.000
    N136    N    0.75738   0.86206   0.54093   1.000
    O137    O    0.73863   0.83182   0.59152   1.000
    O138    O    0.71223   0.86011   0.48860   1.000
    O139    O    0.90975   0.94643   0.52226   1.000
    N140    N    0.74259   0.13790   0.45908   1.000
    O141    O    0.78774   0.13985   0.51140   1.000
    O142    O    0.76134   0.16814   0.40849   1.000
    N143    N    0.25739   0.86206   0.54093   1.000
    O144    O    0.23864   0.83182   0.59152   1.000
    O145    O    0.21225   0.86011   0.48860   1.000
    O146    O    0.59023   0.05353   0.47775   1.000
    N147    N    0.84666   0.92421   0.83660   1.000
    O148    O    0.01123   0.82865   0.83861   1.000
    O149    O    0.70056   0.03676   0.77106   1.000
    N150    N    0.15332   0.07542   0.16341   1.000
    O151    O    0.98875   0.17115   0.16139   1.000
    O152    O    0.29942   0.96304   0.22893   1.000
    N153    N    0.65332   0.07543   0.16340   1.000
    O154    O    0.79941   0.96304   0.22892   1.000
    O155    O    0.48876   0.17115   0.16139   1.000
loop_
    _geom_bond_atom_site_label_1
    _geom_bond_atom_site_label_2
    _geom_bond_distance
    _geom_bond_site_symmetry_2
    _ccdc_geom_bond_type
    Zr32   O56       0.65257      .   S
    Zr12   O56       0.65257      .   S
    Zr32   O57       0.98577      .   S
    Zr2    O57       0.98577      .   S
    Zr33   O58       0.65248      .   S
    Zr13   O58       0.65248      .   S
    Zr33   O59       0.98577      .   S
    Zr3    O59       0.98577      .   S
    Zr13   O60       0.62457      .   S
    Zr37   O60       0.62457      .   S
    Zr12   O61       0.62401      .   S
    Zr36   O61       0.62401      .   S
    Zr23   O62       0.62640      .   S
    Zr51   O62       0.62640      .   S
    Zr23   O63       0.65363      .   S
    Zr54   O63       0.65363  1_455   S
    Zr22   O64       0.62640      .   S
    Zr50   O64       0.62640      .   S
    Zr22   O65       0.65351      .   S
    Zr55   O65       0.65351      .   S
    Zr3    O66       0.99907      .   S
    Zr47   O66       0.99907      .   S
    Zr2    O67       0.99909      .   S
    Zr46   O67       0.99909      .   S
    Zr55   O68       0.99945      .   S
    Zr0    O68       0.99945      .   S
    Zr54   O69       0.99953  1_455   S
    Zr1    O69       0.99953      .   S
    Zr47   O70       0.65346      .   S
    Zr19   O70       0.65346      .   S
    Zr46   O71       0.65341      .   S
    Zr18   O71       0.65341      .   S
    Zr42   O72       0.67196      .   S
    Zr18   O72       0.67196      .   S
    Zr1    O73       0.98598  1_655   S
    Zr24   O73       0.98598      .   S
    Zr0    O74       0.98569      .   S
    Zr25   O74       0.98569      .   S
    Zr43   O75       0.62634      .   S
    Zr19   O75       0.62634      .   S
    Zr29   O76       0.62398      .   S
    Zr9    O76       0.62398      .   S
    Zr28   O77       0.62398      .   S
    Zr8    O77       0.62398      .   S
    Zr9    O78       0.65251      .   S
    Zr25   O78       0.65251      .   S
    Zr8    O79       0.65254      .   S
    Zr24   O79       0.65254      .   S
    Zr40   O80       0.65246      .   S
    Zr16   O80       0.65246      .   S
    Zr40   O81       0.98535      .   S
    Zr5    O81       0.98535      .   S
    Zr41   O82       0.65247      .   S
    Zr17   O82       0.65247      .   S
    Zr41   O83       0.98546      .   S
    Zr4    O83       0.98546  1_455   S
    Zr16   O84       0.62449      .   S
    Zr44   O84       0.62449      .   S
    Zr17   O85       0.62448      .   S
    Zr45   O85       0.62448      .   S
    Zr11   O86       0.62633      .   S
    Zr27   O86       0.62633      .   S
    Zr11   O87       0.65342      .   S
    Zr31   O87       0.65342      .   S
    Zr10   O88       0.62633      .   S
    Zr26   O88       0.62633      .   S
    Zr10   O89       0.65342      .   S
    Zr30   O89       0.65342      .   S
    Zr5    O90       0.99998      .   S
    Zr38   O90       0.99998      .   S
    Zr4    O91       1.00007      .   S
    Zr39   O91       1.00007  1_655   S
    Zr30   O92       0.99906      .   S
    Zr6    O92       0.99906      .   S
    Zr31   O93       0.99907      .   S
    Zr7    O93       0.99907      .   S
    Zr39   O94       0.65362  1_655   S
    Zr14   O94       0.65362      .   S
    Zr38   O95       0.65351      .   S
    Zr15   O95       0.65351      .   S
    Zr6    O96       0.98579      .   S
    Zr48   O96       0.98579      .   S
    Zr7    O97       0.98579      .   S
    Zr49   O97       0.98579      .   S
    Zr34   O98       0.62639      .   S
    Zr14   O98       0.62639      .   S
    Zr35   O99       0.62639      .   S
    Zr15   O99       0.62639      .   S
    Zr52   O100      0.62398      .   S
    Zr20   O100      0.62398      .   S
    Zr53   O101      0.62398      .   S
    Zr21   O101      0.62398      .   S
    Zr21   O102      0.65257      .   S
    Zr49   O102      0.65257      .   S
    Zr20   O103      0.65257      .   S
    Zr48   O103      0.65257      .   S
    N104   O105      2.99918  1_565   S
    Zr4    O105      3.94608      .   S
    N104   O106      2.89096      .   S
    Zr7    O106      3.82282      .   S
    N107   O108      2.99662  1_455   S
    Zr3    O108      3.94330      .   S
    N107   O109      2.89050      .   S
    Zr0    O109      3.82325      .   S
    N110   O111      1.07412  1_454   S
    Zr21   O111      1.82819      .   S
    N110   O112      1.07800  1_455   S
    Zr23   O112      1.82918      .   S
    N113   O114      1.07383  1_556   S
    Zr13   O114      1.82729      .   S
    N113   O115      1.07796      .   S
    Zr15   O115      1.82911      .   S
    N110   O116      6.02270  1_554   S
    N113   O116      2.68595      .   S
    N117   O118      1.07808      .   S
    Zr22   O118      1.82926      .   S
    N117   O119      1.07397  1_554   S
    Zr20   O119      1.82804      .   S
    N120   O121      1.07802  1_655   S
    Zr14   O121      1.82916      .   S
    N120   O122      1.07412  1_656   S
    Zr12   O122      1.82814      .   S
    N120   O123      6.02262  1_556   S
    N117   O123      2.68595      .   S
    N124   O125      2.99653      .   S
    Zr2    O125      3.94322      .   S
    N124   O126      2.89046      .   S
    Zr1    O126      3.82321      .   S
    N127   O128      2.99667  1_655   S
    Zr6    O128      3.94336      .   S
    N127   O129      2.89047      .   S
    Zr5    O129      3.82301      .   S
    N130   O131      2.99658      .   S
    Zr7    O131      3.94327      .   S
    N130   O132      2.89042      .   S
    Zr4    O132      3.82297      .   S
    N133   O134      1.07384      .   S
    Zr16   O134      1.82736      .   S
    N133   O135      1.07809      .   S
    Zr18   O135      1.82934      .   S
    N136   O137      1.07806      .   S
    Zr11   O137      1.82930      .   S
    N136   O138      1.07408      .   S
    Zr9    O138      1.82809      .   S
    N133   O139      6.02310  1_445   S
    N136   O139      2.68616      .   S
    N140   O141      1.07384      .   S
    Zr17   O141      1.82737      .   S
    N140   O142      1.07806      .   S
    Zr19   O142      1.82930      .   S
    N143   O144      1.07807      .   S
    Zr10   O144      1.82931      .   S
    N143   O145      1.07408      .   S
    Zr8    O145      1.82809      .   S
    N143   O146      6.02287  1_565   S
    N140   O146      2.68609      .   S
    N147   O148      2.89105  1_655   S
    Zr6    O148      3.82291      .   S
    N147   O149      2.99921  1_565   S
    Zr5    O149      3.94610      .   S
    N150   O151      2.89259  1_455   S
    Zr3    O151      3.82453      .   S
    N150   O152      2.99737  1_545   S
    Zr0    O152      3.94382      .   S
    N153   O154      2.99734  1_545   S
    Zr1    O154      3.94380      .   S
    N153   O155      2.89249      .   S
    Zr2    O155      3.82443      .   S
