# CIF file generated by openbabel 2.4.90, see http://openbabel.sf.net
data_I
_chemical_name_common ''
_cell_length_a 19.518
_cell_length_b 19.551
_cell_length_c 19.542
_cell_angle_alpha 72.051
_cell_angle_beta 71.978
_cell_angle_gamma 71.943
_space_group_name_H-M_alt 'P 1'
_space_group_name_Hall 'P 1'
loop_
    _symmetry_equiv_pos_as_xyz
    x,y,z
loop_
    _atom_site_label
    _atom_site_type_symbol
    _atom_site_fract_x
    _atom_site_fract_y
    _atom_site_fract_z
    _atom_site_occupancy
    Zr0     Zr   0.54822   0.31750   0.98144   1.000
    Zr1     Zr   0.64315   0.21476   0.87635   1.000
    Zr2     Zr   0.98131   0.54925   0.31692   1.000
    Zr3     Zr   0.87689   0.64316   0.21300   1.000
    Zr4     Zr   0.31645   0.97755   0.55034   1.000
    Zr5     Zr   0.21172   0.87505   0.64435   1.000
    Zr6     Zr   0.81602   0.04866   0.48102   1.000
    Zr7     Zr   0.71224   0.14243   0.37717   1.000
    Zr8     Zr   0.04964   0.47744   0.81788   1.000
    Zr9     Zr   0.14485   0.37443   0.71289   1.000
    Zr10    Zr   0.48188   0.81704   0.04940   1.000
    Zr11    Zr   0.37657   0.71483   0.14359   1.000
    N12     N    0.18455   0.18378   0.18518   1.000
    O13     O    0.18589   0.04590   0.39504   1.000
    O14     O    0.08482   0.34953   0.23659   1.000
    O15     O    0.04728   0.39383   0.18684   1.000
    O16     O    0.39424   0.18680   0.04723   1.000
    O17     O    0.23601   0.08273   0.35073   1.000
    O18     O    0.34950   0.23610   0.08515   1.000
    N19     N    0.00815   0.00832   0.00900   1.000
    O20     O    0.95695   0.84277   0.10917   1.000
    O21     O    0.84255   0.10951   0.95730   1.000
    O22     O    0.00694   0.79853   0.14651   1.000
    O23     O    0.79787   0.14633   0.00752   1.000
    O24     O    0.14577   0.00539   0.79927   1.000
    O25     O    0.10800   0.95614   0.84367   1.000
    N26     N    0.68493   0.68357   0.68510   1.000
    O27     O    0.85042   0.58246   0.73686   1.000
    O28     O    0.54730   0.68670   0.89476   1.000
    O29     O    0.68633   0.89324   0.54751   1.000
    O30     O    0.89520   0.54557   0.68669   1.000
    O31     O    0.58531   0.73582   0.85030   1.000
    O32     O    0.73607   0.84907   0.58502   1.000
    N33     N    0.50839   0.50819   0.50894   1.000
    O34     O    0.34345   0.45588   0.60912   1.000
    O35     O    0.50727   0.64611   0.29896   1.000
    O36     O    0.64571   0.29811   0.50731   1.000
    O37     O    0.29866   0.50527   0.64698   1.000
    O38     O    0.60828   0.34229   0.45756   1.000
    O39     O    0.45695   0.60945   0.34331   1.000
    O40     O    0.52419   0.82362   0.61721   1.000
    O41     O    0.86719   0.07595   0.16961   1.000
    O42     O    0.57635   0.36829   0.66917   1.000
    O43     O    0.07684   0.16797   0.86800   1.000
    O44     O    0.16886   0.86845   0.07683   1.000
    O45     O    0.82606   0.61587   0.52448   1.000
    O46     O    0.61621   0.52394   0.82620   1.000
    O47     O    0.66916   0.57613   0.36817   1.000
    O48     O    0.32611   0.02384   0.11687   1.000
    O49     O    0.02377   0.11577   0.32597   1.000
    O50     O    0.36707   0.66818   0.57708   1.000
    O51     O    0.11652   0.32376   0.02500   1.000
loop_
    _geom_bond_atom_site_label_1
    _geom_bond_atom_site_label_2
    _geom_bond_distance
    _geom_bond_site_symmetry_2
    _ccdc_geom_bond_type
    N12    O13       4.15875      .   S
    Zr5    O13       5.05905  1_565   S
    N12    O14       3.49080      .   S
    Zr2    O14       4.32633  1_655   S
    N12    O15       4.15342      .   S
    Zr3    O15       5.05152  1_655   S
    N12    O16       4.15278      .   S
    Zr1    O16       5.05318  1_556   S
    N12    O17       3.49568      .   S
    Zr4    O17       4.33052  1_565   S
    N12    O18       3.48529      .   S
    Zr0    O18       4.31951  1_556   S
    N19    O20       3.49230  1_445   S
    Zr3    O20       4.32734      .   S
    N19    O21       3.49373  1_454   S
    Zr1    O21       4.32705      .   S
    N19    O22       4.15591  1_545   S
    Zr2    O22       5.05678  1_655   S
    N19    O23       4.15773  1_455   S
    Zr0    O23       5.05754  1_556   S
    N19    O24       4.15368  1_554   S
    Zr4    O24       5.05365  1_565   S
    N19    O25       3.48990  1_544   S
    Zr5    O25       4.32685      .   S
    N26    O27       3.49212      .   S
    Zr8    O27       4.32425  1_455   S
    N26    O28       4.15325      .   S
    Zr11   O28       5.05341  1_554   S
    N26    O29       4.15514      .   S
    Zr7    O29       5.05590  1_545   S
    N26    O30       4.15769      .   S
    Zr9    O30       5.05780  1_455   S
    N26    O31       3.48761      .   S
    Zr10   O31       4.32392  1_554   S
    N26    O32       3.49082      .   S
    Zr6    O32       4.32621  1_545   S
    N33    O34       3.48557      .   S
    Zr9    O34       4.31813      .   S
    N33    O35       4.16031      .   S
    Zr10   O35       5.06185      .   S
    N33    O36       4.15423      .   S
    Zr6    O36       5.05336      .   S
    N33    O37       4.15381      .   S
    Zr8    O37       5.05449      .   S
    N33    O38       3.49348      .   S
    Zr7    O38       4.33017      .   S
    N33    O39       3.49748      .   S
    Zr11   O39       4.33222      .   S
    Zr4    O40       4.52708      .   S
    N26    O40       3.75649      .   S
    Zr7    O41       4.52872      .   S
    N19    O41       3.75892  1_455   S
    Zr1    O42       4.52236      .   S
    N33    O42       3.75336      .   S
    Zr9    O43       4.53152      .   S
    N19    O43       3.76033  1_554   S
    Zr11   O44       4.52407      .   S
    N19    O44       3.75437  1_545   S
    Zr2    O45       4.53157      .   S
    N26    O45       3.76062      .   S
    Zr0    O46       4.53187      .   S
    N26    O46       3.76088      .   S
    Zr3    O47       4.53749      .   S
    N33    O47       3.76421      .   S
    Zr10   O48       4.52917  1_565   S
    N12    O48       3.75888      .   S
    Zr6    O49       4.53763  1_655   S
    N12    O49       3.76502      .   S
    Zr5    O50       4.52628      .   S
    N33    O50       3.75660      .   S
    Zr8    O51       4.52291  1_556   S
    N12    O51       3.75368      .   S
