# CIF file generated by openbabel 2.4.90, see http://openbabel.sf.net
data_I
_chemical_name_common ''
_cell_length_a 19.518
_cell_length_b 19.551
_cell_length_c 19.542
_cell_angle_alpha 72.051
_cell_angle_beta 71.978
_cell_angle_gamma 71.943
_space_group_name_H-M_alt 'P 1'
_space_group_name_Hall 'P 1'
loop_
    _symmetry_equiv_pos_as_xyz
    x,y,z
loop_
    _atom_site_label
    _atom_site_type_symbol
    _atom_site_fract_x
    _atom_site_fract_y
    _atom_site_fract_z
    _atom_site_occupancy
    Zr0     Zr   0.54822   0.31750   0.98144   1.000
    Zr1     Zr   0.64315   0.21476   0.87635   1.000
    Zr2     Zr   0.98131   0.54925   0.31692   1.000
    Zr3     Zr   0.87689   0.64316   0.21300   1.000
    Zr4     Zr   0.31645   0.97755   0.55034   1.000
    Zr5     Zr   0.21172   0.87505   0.64435   1.000
    Zr6     Zr   0.81602   0.04866   0.48102   1.000
    Zr7     Zr   0.71224   0.14243   0.37717   1.000
    Zr8     Zr   0.04964   0.47744   0.81788   1.000
    Zr9     Zr   0.14485   0.37443   0.71289   1.000
    Zr10    Zr   0.48188   0.81704   0.04940   1.000
    Zr11    Zr   0.37657   0.71483   0.14359   1.000
    N12     N    0.18455   0.18378   0.18518   1.000
    O13     O    0.18589   0.04590   0.39504   1.000
    O14     O    0.08482   0.34953   0.23659   1.000
    O15     O    0.04728   0.39383   0.18684   1.000
    O16     O    0.10716   0.33734   0.02688   1.000
    O17     O    0.39424   0.18680   0.04723   1.000
    O18     O    0.02573   0.10643   0.33951   1.000
    O19     O    0.31250   0.02191   0.12614   1.000
    O20     O    0.23601   0.08273   0.35073   1.000
    O21     O    0.34950   0.23610   0.08515   1.000
    O22     O    0.33973   0.02577   0.10760   1.000
    O23     O    0.12588   0.31018   0.02313   1.000
    O24     O    0.02181   0.12512   0.31242   1.000
    N25     N    0.00815   0.00832   0.00900   1.000
    O26     O    0.95695   0.84277   0.10917   1.000
    O27     O    0.84255   0.10951   0.95730   1.000
    O28     O    0.00694   0.79853   0.14651   1.000
    O29     O    0.79787   0.14633   0.00752   1.000
    O30     O    0.16699   0.85490   0.08621   1.000
    O31     O    0.85356   0.08525   0.16775   1.000
    O32     O    0.14577   0.00539   0.79927   1.000
    O33     O    0.06746   0.16997   0.88154   1.000
    O34     O    0.10800   0.95614   0.84367   1.000
    O35     O    0.08622   0.16597   0.85446   1.000
    O36     O    0.17073   0.88200   0.06745   1.000
    O37     O    0.88081   0.06666   0.17148   1.000
    N38     N    0.68493   0.68357   0.68510   1.000
    O39     O    0.83966   0.60654   0.52637   1.000
    O40     O    0.52607   0.83718   0.60789   1.000
    O41     O    0.85042   0.58246   0.73686   1.000
    O42     O    0.52231   0.81005   0.62653   1.000
    O43     O    0.81246   0.62521   0.52259   1.000
    O44     O    0.62557   0.52194   0.81265   1.000
    O45     O    0.54730   0.68670   0.89476   1.000
    O46     O    0.60686   0.52594   0.83975   1.000
    O47     O    0.68633   0.89324   0.54751   1.000
    O48     O    0.89520   0.54557   0.68669   1.000
    O49     O    0.58531   0.73582   0.85030   1.000
    O50     O    0.73607   0.84907   0.58502   1.000
    N51     N    0.50839   0.50819   0.50894   1.000
    O52     O    0.34345   0.45588   0.60912   1.000
    O53     O    0.50727   0.64611   0.29896   1.000
    O54     O    0.64571   0.29811   0.50731   1.000
    O55     O    0.38066   0.67010   0.56774   1.000
    O56     O    0.29866   0.50527   0.64698   1.000
    O57     O    0.35349   0.66626   0.58643   1.000
    O58     O    0.58564   0.35467   0.66732   1.000
    O59     O    0.60828   0.34229   0.45756   1.000
    O60     O    0.56707   0.38191   0.67101   1.000
    O61     O    0.66722   0.58549   0.35463   1.000
    O62     O    0.67111   0.56677   0.38172   1.000
    O63     O    0.45695   0.60945   0.34331   1.000
loop_
    _geom_bond_atom_site_label_1
    _geom_bond_atom_site_label_2
    _geom_bond_distance
    _geom_bond_site_symmetry_2
    _ccdc_geom_bond_type
    N12    O13       4.15875      .   S
    Zr5    O13       5.05905  1_565   S
    N12    O14       3.49080      .   S
    Zr2    O14       4.32633  1_655   S
    N12    O15       4.15342      .   S
    Zr3    O15       5.05152  1_655   S
    N12    O16       3.90141      .   S
    Zr8    O16       4.41357  1_556   S
    N12    O17       4.15278      .   S
    Zr1    O17       5.05318  1_556   S
    N12    O18       3.91186      .   S
    Zr6    O18       4.42874  1_655   S
    N12    O19       3.62659      .   S
    Zr10   O19       4.65258  1_565   S
    N12    O20       3.49568      .   S
    Zr4    O20       4.33052  1_565   S
    N12    O21       3.48529      .   S
    Zr0    O21       4.31951  1_556   S
    N12    O22       3.90644      .   S
    Zr10   O22       4.41976  1_565   S
    N12    O23       3.62122      .   S
    Zr8    O23       4.64628  1_556   S
    N12    O24       3.63347      .   S
    Zr6    O24       4.66052  1_655   S
    N25    O26       3.49230  1_445   S
    Zr3    O26       4.32734      .   S
    N25    O27       3.49373  1_454   S
    Zr1    O27       4.32705      .   S
    N25    O28       4.15591  1_545   S
    Zr2    O28       5.05678  1_655   S
    N25    O29       4.15773  1_455   S
    Zr0    O29       5.05754  1_556   S
    N25    O30       3.90194  1_545   S
    Zr11   O30       4.41482      .   S
    N25    O31       3.90658  1_455   S
    Zr7    O31       4.41927      .   S
    N25    O32       4.15368  1_554   S
    Zr4    O32       5.05365  1_565   S
    N25    O33       3.62827  1_554   S
    Zr9    O33       4.65474      .   S
    N25    O34       3.48990  1_544   S
    Zr5    O34       4.32685      .   S
    N25    O35       3.90767  1_554   S
    Zr9    O35       4.42230      .   S
    N25    O36       3.62207  1_545   S
    Zr11   O36       4.64735      .   S
    N25    O37       3.62652  1_455   S
    Zr7    O37       4.65218      .   S
    N38    O39       3.90818      .   S
    Zr2    O39       4.42212      .   S
    N38    O40       3.90375      .   S
    Zr4    O40       4.41804      .   S
    N38    O41       3.49212      .   S
    Zr8    O41       4.32425  1_455   S
    N38    O42       3.62453      .   S
    Zr4    O42       4.65014      .   S
    N38    O43       3.62832      .   S
    Zr2    O43       4.65502      .   S
    N38    O44       3.62891      .   S
    Zr0    O44       4.65500      .   S
    N38    O45       4.15325      .   S
    Zr11   O45       5.05341  1_554   S
    N38    O46       3.90812      .   S
    Zr0    O46       4.42275      .   S
    N38    O47       4.15514      .   S
    Zr7    O47       5.05590  1_545   S
    N38    O48       4.15769      .   S
    Zr9    O48       5.05780  1_455   S
    N38    O49       3.48761      .   S
    Zr10   O49       4.32392  1_554   S
    N38    O50       3.49082      .   S
    Zr6    O50       4.32621  1_545   S
    N51    O52       3.48557      .   S
    Zr9    O52       4.31813      .   S
    N51    O53       4.16031      .   S
    Zr10   O53       5.06185      .   S
    N51    O54       4.15423      .   S
    Zr6    O54       5.05336      .   S
    N51    O55       3.62406      .   S
    Zr5    O55       4.64983      .   S
    N51    O56       4.15381      .   S
    Zr8    O56       5.05449      .   S
    N51    O57       3.90441      .   S
    Zr5    O57       4.41674      .   S
    N51    O58       3.90111      .   S
    Zr1    O58       4.41302      .   S
    N51    O59       3.49348      .   S
    Zr7    O59       4.33017      .   S
    N51    O60       3.62088      .   S
    Zr1    O60       4.64572      .   S
    N51    O61       3.91135      .   S
    Zr3    O61       4.42815      .   S
    N51    O62       3.63235      .   S
    Zr3    O62       4.66080      .   S
    N51    O63       3.49748      .   S
    Zr11   O63       4.33222      .   S
