# CIF file generated by openbabel 2.4.90, see http://openbabel.sf.net
data_I
_chemical_name_common ''
_cell_length_a 19.518
_cell_length_b 19.551
_cell_length_c 19.542
_cell_angle_alpha 72.051
_cell_angle_beta 71.978
_cell_angle_gamma 71.943
_space_group_name_H-M_alt 'P 1'
_space_group_name_Hall 'P 1'
loop_
    _symmetry_equiv_pos_as_xyz
    x,y,z
loop_
    _atom_site_label
    _atom_site_type_symbol
    _atom_site_fract_x
    _atom_site_fract_y
    _atom_site_fract_z
    _atom_site_occupancy
    C0      C    0.54822   0.31750   0.98144   1.000
    C1      C    0.64315   0.21476   0.87635   1.000
    C2      C    0.98131   0.54925   0.31692   1.000
    C3      C    0.87689   0.64316   0.21300   1.000
    C4      C    0.31645   0.97755   0.55034   1.000
    C5      C    0.21172   0.87505   0.64435   1.000
    C6      C    0.81602   0.04866   0.48102   1.000
    C7      C    0.71224   0.14243   0.37717   1.000
    C8      C    0.04964   0.47744   0.81788   1.000
    C9      C    0.14485   0.37443   0.71289   1.000
    C10     C    0.48188   0.81704   0.04940   1.000
    C11     C    0.37657   0.71483   0.14359   1.000
    C12     C    0.48040   0.54873   0.02462   1.000
    C13     C    0.56373   0.72941   0.86433   1.000
    C14     C    0.62157   0.51533   0.81426   1.000
    C15     C    0.56092   0.75843   0.73437   1.000
    C16     C    0.66818   0.21250   0.14621   1.000
    C17     C    0.87920   0.07116   0.17776   1.000
    C18     C    0.82851   0.13145   0.96371   1.000
    C19     C    0.95891   0.13257   0.93427   1.000
    C20     C    0.02492   0.47929   0.54798   1.000
    C21     C    0.86451   0.56040   0.73042   1.000
    C22     C    0.81397   0.62070   0.51620   1.000
    C23     C    0.73416   0.55928   0.75984   1.000
    C24     C    0.14561   0.66998   0.21308   1.000
    C25     C    0.17681   0.88047   0.07166   1.000
    C26     C    0.96300   0.82895   0.13103   1.000
    C27     C    0.93318   0.95973   0.13316   1.000
    C28     C    0.54749   0.02188   0.48095   1.000
    C29     C    0.73003   0.86282   0.56304   1.000
    C30     C    0.51615   0.81144   0.62239   1.000
    C31     C    0.75983   0.73209   0.56088   1.000
    C32     C    0.21272   0.14328   0.66957   1.000
    C33     C    0.07136   0.17654   0.87992   1.000
    C34     C    0.12950   0.96246   0.82976   1.000
    C35     C    0.13213   0.93341   0.95973   1.000
    C36     C    0.04722   0.97934   0.52400   1.000
    C37     C    0.22969   0.06096   0.36461   1.000
    C38     C    0.01545   0.12088   0.31364   1.000
    C39     C    0.25944   0.05943   0.23430   1.000
    C40     C    0.71218   0.16915   0.64568   1.000
    C41     C    0.57180   0.38046   0.67688   1.000
    C42     C    0.63014   0.32847   0.46357   1.000
    C43     C    0.63288   0.45937   0.43383   1.000
    C44     C    0.98066   0.52281   0.04858   1.000
    C45     C    0.06279   0.36337   0.23050   1.000
    C46     C    0.12113   0.31158   0.01718   1.000
    C47     C    0.06000   0.23253   0.26024   1.000
    C48     C    0.16844   0.64368   0.71360   1.000
    C49     C    0.37869   0.67676   0.57160   1.000
    C50     C    0.32933   0.46235   0.63090   1.000
    C51     C    0.45935   0.43351   0.63257   1.000
    C52     C    0.52459   0.04845   0.98056   1.000
    C53     C    0.36351   0.22960   0.06338   1.000
    C54     C    0.31433   0.01514   0.12228   1.000
    C55     C    0.23356   0.25838   0.06153   1.000
    C56     C    0.64576   0.71268   0.17018   1.000
    C57     C    0.67742   0.57096   0.38051   1.000
    C58     C    0.46319   0.63112   0.32944   1.000
    C59     C    0.43345   0.63247   0.45981   1.000
    C60     C    0.54770   0.44560   0.94349   1.000
    C61     C    0.55095   0.52454   0.92134   1.000
    C62     C    0.51285   0.57055   0.97030   1.000
    C63     C    0.51772   0.64444   0.94915   1.000
    C64     C    0.55974   0.67209   0.87900   1.000
    C65     C    0.59786   0.62647   0.82939   1.000
    C66     C    0.59318   0.55235   0.85150   1.000
    C67     C    0.48044   0.69282   0.00240   1.000
    C68     C    0.64257   0.65565   0.75545   1.000
    C69     C    0.61539   0.72547   0.71274   1.000
    C70     C    0.69005   0.21437   0.00166   1.000
    C71     C    0.74368   0.17644   0.04960   1.000
    C72     C    0.72264   0.18039   0.12382   1.000
    C73     C    0.77184   0.14181   0.16946   1.000
    C74     C    0.84178   0.09993   0.14098   1.000
    C75     C    0.86374   0.09598   0.06658   1.000
    C76     C    0.81388   0.13473   0.02120   1.000
    C77     C    0.93766   0.05117   0.03696   1.000
    C78     C    0.98042   0.07811   0.96700   1.000
    C79     C    0.74983   0.14424   0.24869   1.000
    C80     C    0.94338   0.54762   0.44540   1.000
    C81     C    0.92130   0.55002   0.52464   1.000
    C82     C    0.97046   0.51141   0.57033   1.000
    C83     C    0.94938   0.51540   0.64455   1.000
    C84     C    0.87915   0.55712   0.67283   1.000
    C85     C    0.82932   0.59586   0.62750   1.000
    C86     C    0.85134   0.59191   0.55309   1.000
    C87     C    0.00296   0.47751   0.69254   1.000
    C88     C    0.75539   0.64066   0.65710   1.000
    C89     C    0.71264   0.61373   0.72704   1.000
    C90     C    0.00125   0.69099   0.21397   1.000
    C91     C    0.04898   0.74476   0.17647   1.000
    C92     C    0.12318   0.72414   0.18077   1.000
    C93     C    0.16871   0.77341   0.14240   1.000
    C94     C    0.14013   0.84299   0.10033   1.000
    C95     C    0.06570   0.86458   0.09616   1.000
    C96     C    0.02054   0.81463   0.13461   1.000
    C97     C    0.03595   0.93829   0.05147   1.000
    C98     C    0.96600   0.98114   0.07865   1.000
    C99     C    0.24797   0.75176   0.14507   1.000
    C100    C    0.44505   0.94027   0.54898   1.000
    C101    C    0.52432   0.91849   0.55165   1.000
    C102    C    0.56989   0.96772   0.51326   1.000
    C103    C    0.64409   0.94705   0.51757   1.000
    C104    C    0.67248   0.87717   0.55940   1.000
    C105    C    0.62730   0.82725   0.59788   1.000
    C106    C    0.55286   0.84888   0.59371   1.000
    C107    C    0.69189   0.00076   0.48014   1.000
    C108    C    0.65706   0.75354   0.64257   1.000
    C109    C    0.72702   0.71069   0.61539   1.000
    C110    C    0.21280   0.99923   0.69162   1.000
    C111    C    0.17546   0.04751   0.74498   1.000
    C112    C    0.18025   0.12141   0.72388   1.000
    C113    C    0.14208   0.16739   0.77286   1.000
    C114    C    0.09982   0.13954   0.84266   1.000
    C115    C    0.09522   0.06540   0.86473   1.000
    C116    C    0.13343   0.01980   0.81506   1.000
    C117    C    0.05049   0.03619   0.93865   1.000
    C118    C    0.07765   0.96636   0.98135   1.000
    C119    C    0.14527   0.24635   0.75077   1.000
    C120    C    0.94455   0.04755   0.44277   1.000
    C121    C    0.02385   0.05010   0.42067   1.000
    C122    C    0.06957   0.01158   0.46979   1.000
    C123    C    0.14381   0.01567   0.44897   1.000
    C124    C    0.17210   0.05752   0.37906   1.000
    C125    C    0.12674   0.09616   0.32925   1.000
    C126    C    0.05227   0.09212   0.35101   1.000
    C127    C    0.19169   0.97793   0.50264   1.000
    C128    C    0.15641   0.14092   0.25556   1.000
    C129    C    0.22652   0.11389   0.21286   1.000
    C130    C    0.71277   0.19017   0.50164   1.000
    C131    C    0.67555   0.24410   0.54932   1.000
    C132    C    0.68005   0.22349   0.62333   1.000
    C133    C    0.64204   0.27299   0.66800   1.000
    C134    C    0.60019   0.34279   0.64029   1.000
    C135    C    0.59581   0.36433   0.56606   1.000
    C136    C    0.63390   0.31417   0.52097   1.000
    C137    C    0.55112   0.43815   0.53640   1.000
    C138    C    0.57829   0.48088   0.46667   1.000
    C139    C    0.64482   0.25139   0.74790   1.000
    C140    C    0.04801   0.44062   0.94631   1.000
    C141    C    0.05082   0.41900   0.02538   1.000
    C142    C    0.01281   0.46846   0.07089   1.000
    C143    C    0.01737   0.44782   0.14488   1.000
    C144    C    0.05901   0.37771   0.17310   1.000
    C145    C    0.09709   0.32759   0.12805   1.000
    C146    C    0.09271   0.34920   0.05382   1.000
    C147    C    0.98024   0.50168   0.19265   1.000
    C148    C    0.14177   0.25375   0.15762   1.000
    C149    C    0.11459   0.21102   0.22740   1.000
    C150    C    0.19114   0.49918   0.71444   1.000
    C151    C    0.24425   0.54762   0.67667   1.000
    C152    C    0.22285   0.62169   0.68113   1.000
    C153    C    0.27167   0.66769   0.64258   1.000
    C154    C    0.34159   0.63971   0.60033   1.000
    C155    C    0.36393   0.56545   0.59597   1.000
    C156    C    0.31443   0.51982   0.63450   1.000
    C157    C    0.43797   0.53618   0.55110   1.000
    C158    C    0.48088   0.46637   0.57817   1.000
    C159    C    0.24946   0.74678   0.64543   1.000
    C160    C    0.44371   0.94528   0.04847   1.000
    C161    C    0.42137   0.02433   0.05144   1.000
    C162    C    0.47014   0.07039   0.01299   1.000
    C163    C    0.44868   0.14442   0.01750   1.000
    C164    C    0.37846   0.17215   0.05966   1.000
    C165    C    0.32899   0.12647   0.09814   1.000
    C166    C    0.35140   0.05223   0.09368   1.000
    C167    C    0.50175   0.19292   0.97994   1.000
    C168    C    0.25492   0.15570   0.14290   1.000
    C169    C    0.21202   0.22552   0.11591   1.000
    C170    C    0.50132   0.71422   0.19141   1.000
    C171    C    0.54913   0.67639   0.24514   1.000
    C172    C    0.62339   0.68041   0.22437   1.000
    C173    C    0.66907   0.64183   0.27351   1.000
    C174    C    0.64061   0.59976   0.34312   1.000
    C175    C    0.56613   0.59578   0.36484   1.000
    C176    C    0.52080   0.63450   0.31502   1.000
    C177    C    0.53645   0.55098   0.43851   1.000
    C178    C    0.46635   0.57800   0.48124   1.000
    C179    C    0.74838   0.64432   0.25149   1.000
    C180    C    0.58419   0.40313   0.89896   1.000
    C181    C    0.50937   0.41914   0.00735   1.000
    C182    C    0.44276   0.66485   0.06526   1.000
    C183    C    0.48950   0.75909   0.98160   1.000
    C184    C    0.68571   0.18194   0.27583   1.000
    C185    C    0.79471   0.10757   0.29074   1.000
    C186    C    0.71076   0.20667   0.93486   1.000
    C187    C    0.62696   0.25118   0.03063   1.000
    C188    C    0.89866   0.58446   0.40323   1.000
    C189    C    0.00747   0.50976   0.41836   1.000
    C190    C    0.06609   0.44070   0.66365   1.000
    C191    C    0.98218   0.48527   0.75935   1.000
    C192    C    0.27509   0.68814   0.18326   1.000
    C193    C    0.29005   0.79652   0.10823   1.000
    C194    C    0.93458   0.71128   0.20567   1.000
    C195    C    0.03015   0.62825   0.25113   1.000
    C196    C    0.40292   0.89550   0.58557   1.000
    C197    C    0.41798   0.00405   0.51101   1.000
    C198    C    0.66323   0.06339   0.44265   1.000
    C199    C    0.75841   0.98050   0.48886   1.000
    C200    C    0.18371   0.27283   0.68695   1.000
    C201    C    0.10868   0.28880   0.79528   1.000
    C202    C    0.20395   0.93289   0.71234   1.000
    C203    C    0.25034   0.02737   0.62876   1.000
    C204    C    0.90210   0.08424   0.39831   1.000
    C205    C    0.91780   0.00948   0.50666   1.000
    C206    C    0.16273   0.94099   0.56545   1.000
    C207    C    0.25850   0.98581   0.48223   1.000
    C208    C    0.68264   0.18753   0.77506   1.000
    C209    C    0.60835   0.29649   0.78982   1.000
    C210    C    0.70412   0.21037   0.43521   1.000
    C211    C    0.75006   0.12741   0.53036   1.000
    C212    C    0.08477   0.39570   0.90427   1.000
    C213    C    0.00990   0.50436   0.91927   1.000
    C214    C    0.94311   0.56458   0.16399   1.000
    C215    C    0.98886   0.48131   0.25909   1.000
    C216    C    0.18546   0.77363   0.68350   1.000
    C217    C    0.29412   0.78899   0.60872   1.000
    C218    C    0.21218   0.43272   0.70570   1.000
    C219    C    0.12821   0.52727   0.75216   1.000
    C220    C    0.39902   0.90303   0.08478   1.000
    C221    C    0.50792   0.91847   0.01065   1.000
    C222    C    0.56471   0.16488   0.94222   1.000
    C223    C    0.48068   0.25933   0.98879   1.000
    C224    C    0.77519   0.68244   0.18765   1.000
    C225    C    0.79077   0.60755   0.29599   1.000
    C226    C    0.43444   0.70658   0.21179   1.000
    C227    C    0.53043   0.75102   0.12858   1.000
    O228    O    0.65850   0.23277   0.01615   1.000
    O229    O    0.71686   0.19541   0.02563   1.000
    O230    O    0.70041   0.21052   0.96826   1.000
    O231    O    0.46160   0.67883   0.03383   1.000
    O232    O    0.49908   0.66863   0.97578   1.000
    O233    O    0.48497   0.72595   0.99200   1.000
    O234    O    0.52853   0.43237   0.97542   1.000
    O235    O    0.52879   0.36832   0.99439   1.000
    O236    O    0.47581   0.93188   0.02956   1.000
    O237    O    0.49490   0.86776   0.03003   1.000
    O238    O    0.45941   0.10741   0.01525   1.000
    O239    O    0.44575   0.04736   0.03222   1.000
    O240    O    0.49737   0.05942   0.99677   1.000
    O241    O    0.10692   0.33039   0.03550   1.000
    O242    O    0.41357   0.15829   0.03858   1.000
    O243    O    0.47521   0.16867   0.99872   1.000
    O244    O    0.77878   0.15558   0.03540   1.000
    O245    O    0.83881   0.11535   0.04389   1.000
    O246    O    0.82120   0.13309   0.99246   1.000
    O247    O    0.49663   0.55964   0.99746   1.000
    O248    O    0.07176   0.38410   0.03960   1.000
    O249    O    0.03181   0.44373   0.04814   1.000
    O250    O    0.04941   0.42981   0.98584   1.000
    O251    O    0.58759   0.28434   0.00604   1.000
    O252    O    0.90070   0.07358   0.05177   1.000
    O253    O    0.95183   0.01616   0.05780   1.000
    O254    O    0.95904   0.06464   0.00198   1.000
    O255    O    0.43254   0.98481   0.04996   1.000
    O256    O    0.42136   0.92415   0.06663   1.000
    O257    O    0.99673   0.49563   0.05973   1.000
    O258    O    0.44045   0.86003   0.06709   1.000
    O259    O    0.50616   0.78403   0.08899   1.000
    O260    O    0.48569   0.78807   0.01550   1.000
    O261    O    0.73316   0.17842   0.08671   1.000
    O262    O    0.38639   0.03828   0.07256   1.000
    O263    O    0.00097   0.95971   0.06506   1.000
    O264    O    0.05082   0.90143   0.07381   1.000
    O265    O    0.05680   0.95232   0.01641   1.000
    O266    O    0.09490   0.33839   0.09094   1.000
    O267    O    0.37099   0.20087   0.06152   1.000
    O268    O    0.35372   0.14931   0.07890   1.000
    O269    O    0.22279   0.24195   0.08872   1.000
    O270    O    0.40967   0.68984   0.10443   1.000
    O271    O    0.85276   0.09795   0.10378   1.000
    O272    O    0.01509   0.45814   0.10788   1.000
    O273    O    0.15847   0.86173   0.08600   1.000
    O274    O    0.94959   0.97044   0.10591   1.000
    O275    O    0.34020   0.08935   0.09591   1.000
    O276    O    0.33287   0.03368   0.10798   1.000
    O277    O    0.10292   0.85379   0.09824   1.000
    O278    O    0.04312   0.83961   0.11539   1.000
    O279    O    0.29195   0.14108   0.12052   1.000
    O280    O    0.15442   0.80820   0.12137   1.000
    O281    O    0.33331   0.75568   0.12591   1.000
    O282    O    0.26901   0.77414   0.12665   1.000
    O283    O    0.23347   0.19061   0.12941   1.000
    O284    O    0.17690   0.23964   0.13677   1.000
    O285    O    0.69541   0.19645   0.13501   1.000
    O286    O    0.74724   0.16110   0.14664   1.000
    O287    O    0.11943   0.29067   0.14283   1.000
    O288    O    0.07805   0.35265   0.15057   1.000
    O289    O    0.51588   0.73262   0.16000   1.000
    O290    O    0.99177   0.82179   0.13282   1.000
    O291    O    0.03476   0.77970   0.15554   1.000
    O292    O    0.80681   0.12087   0.15522   1.000
    O293    O    0.86049   0.08554   0.15937   1.000
    O294    O    0.20834   0.76258   0.14374   1.000
    O295    O    0.14594   0.74877   0.16158   1.000
    O296    O    0.24072   0.13479   0.17788   1.000
    O297    O    0.32583   0.70148   0.16342   1.000
    O298    O    0.40551   0.71070   0.17769   1.000
    O299    O    0.03819   0.41276   0.15899   1.000
    O300    O    0.99881   0.47475   0.16876   1.000
    O301    O    0.26153   0.71995   0.16417   1.000
    O302    O    0.12818   0.23238   0.19251   1.000
    O303    O    0.96168   0.53313   0.17832   1.000
    O304    O    0.91000   0.60387   0.18850   1.000
    O305    O    0.76084   0.14303   0.20908   1.000
    O306    O    0.63458   0.69654   0.19728   1.000
    O307    O    0.06090   0.37054   0.20180   1.000
    O308    O    0.08608   0.73445   0.17862   1.000
    O309    O    0.02512   0.71787   0.19522   1.000
    O310    O    0.13440   0.69706   0.19692   1.000
    O311    O    0.82604   0.66280   0.20033   1.000
    O312    O    0.76179   0.66338   0.21957   1.000
    O313    O    0.46788   0.71040   0.20160   1.000
    O314    O    0.52522   0.69531   0.21827   1.000
    O315    O    0.98455   0.49150   0.22587   1.000
    O316    O    0.90574   0.67722   0.20934   1.000
    O317    O    0.96792   0.70113   0.20982   1.000
    O318    O    0.24298   0.08666   0.22358   1.000
    O319    O    0.19147   0.12741   0.23421   1.000
    O320    O    0.83383   0.62535   0.25449   1.000
    O321    O    0.01570   0.65962   0.23255   1.000
    O322    O    0.58626   0.67840   0.23476   1.000
    O323    O    0.64623   0.66112   0.24894   1.000
    O324    O    0.13550   0.17597   0.24148   1.000
    O325    O    0.08729   0.22177   0.24382   1.000
    O326    O    0.53496   0.65545   0.28008   1.000
    O327    O    0.71777   0.16309   0.26226   1.000
    O328    O    0.77227   0.12591   0.26971   1.000
    O329    O    0.00573   0.58875   0.28403   1.000
    O330    O    0.70873   0.64307   0.26250   1.000
    O331    O    0.76957   0.62593   0.27374   1.000
    O332    O    0.14158   0.11854   0.29241   1.000
    O333    O    0.98508   0.51528   0.28801   1.000
    O334    O    0.65484   0.62080   0.30831   1.000
    O335    O    0.69897   0.16219   0.32650   1.000
    O336    O    0.75347   0.12500   0.33396   1.000
    O337    O    0.03386   0.10650   0.33232   1.000
    O338    O    0.49200   0.63281   0.32223   1.000
    O339    O    0.54346   0.61514   0.33993   1.000
    O340    O    0.93998   0.56685   0.36007   1.000
    O341    O    0.99439   0.52950   0.36764   1.000
    O342    O    0.08951   0.09414   0.34013   1.000
    O343    O    0.14942   0.07684   0.35415   1.000
    O344    O    0.60337   0.59777   0.35398   1.000
    O345    O    0.65901   0.58536   0.36181   1.000
    O346    O    0.03806   0.07111   0.38584   1.000
    O347    O    0.20089   0.05924   0.37184   1.000
    O348    O    0.55129   0.57338   0.40168   1.000
    O349    O    0.70818   0.17640   0.40619   1.000
    O350    O    0.68773   0.10291   0.40991   1.000
    O351    O    0.15796   0.03660   0.41402   1.000
    O352    O    0.92332   0.06589   0.42054   1.000
    O353    O    0.85906   0.06645   0.43967   1.000
    O354    O    0.92102   0.56604   0.42432   1.000
    O355    O    0.97543   0.52869   0.43188   1.000
    O356    O    0.98420   0.04882   0.43172   1.000
    O357    O    0.04671   0.03084   0.44523   1.000
    O358    O    0.60558   0.47013   0.45025   1.000
    O359    O    0.70845   0.20027   0.46843   1.000
    O360    O    0.55737   0.51593   0.45259   1.000
    O361    O    0.50140   0.56449   0.45988   1.000
    O362    O    0.67756   0.03207   0.46140   1.000
    O363    O    0.93117   0.02852   0.47471   1.000
    O364    O    0.93234   0.54882   0.48502   1.000
    O365    O    0.10669   0.01362   0.45938   1.000
    O366    O    0.16775   0.99680   0.47581   1.000
    O367    O    0.44990   0.60524   0.47053   1.000
    O368    O    0.63202   0.32132   0.49227   1.000
    O369    O    0.56470   0.45952   0.50153   1.000
    O370    O    0.05840   0.99546   0.49690   1.000
    O371    O    0.72515   0.99063   0.48450   1.000
    O372    O    0.66799   0.97390   0.49885   1.000
    O373    O    0.55869   0.99480   0.49710   1.000
    O374    O    0.78721   0.01458   0.48494   1.000
    O375    O    0.86691   0.02907   0.49384   1.000
    O376    O    0.78304   0.08803   0.50569   1.000
    O377    O    0.45216   0.55709   0.51617   1.000
    O378    O    0.22509   0.98187   0.49244   1.000
    O379    O    0.28748   0.98168   0.51629   1.000
    O380    O    0.73142   0.15879   0.51600   1.000
    O381    O    0.69416   0.21713   0.52548   1.000
    O382    O    0.17721   0.95946   0.53404   1.000
    O383    O    0.43151   0.97216   0.52999   1.000
    O384    O    0.36722   0.99080   0.53068   1.000
    O385    O    0.60699   0.95739   0.51542   1.000
    O386    O    0.54711   0.94311   0.53246   1.000
    O387    O    0.83265   0.60630   0.53465   1.000
    O388    O    0.65829   0.91211   0.53848   1.000
    O389    O    0.65473   0.27914   0.53515   1.000
    O390    O    0.61486   0.33925   0.54351   1.000
    O391    O    0.88632   0.57097   0.53886   1.000
    O392    O    0.94588   0.53072   0.54748   1.000
    O393    O    0.57347   0.40124   0.55123   1.000
    O394    O    0.51600   0.45226   0.55728   1.000
    O395    O    0.99769   0.49535   0.55915   1.000
    O396    O    0.48468   0.92938   0.55031   1.000
    O397    O    0.42398   0.91789   0.56728   1.000
    O398    O    0.67780   0.23379   0.58632   1.000
    O399    O    0.35969   0.93653   0.56796   1.000
    O400    O    0.28340   0.00246   0.58955   1.000
    O401    O    0.45942   0.50128   0.56463   1.000
    O402    O    0.40095   0.55082   0.57354   1.000
    O403    O    0.53859   0.88369   0.57268   1.000
    O404    O    0.84033   0.59388   0.59030   1.000
    O405    O    0.70125   0.87000   0.56122   1.000
    O406    O    0.64989   0.85221   0.57864   1.000
    O407    O    0.74343   0.72139   0.58813   1.000
    O408    O    0.18723   0.90802   0.60490   1.000
    O409    O    0.59800   0.35356   0.60318   1.000
    O410    O    0.95992   0.51341   0.60744   1.000
    O411    O    0.36014   0.65823   0.58597   1.000
    O412    O    0.47011   0.44994   0.60537   1.000
    O413    O    0.59008   0.83807   0.59579   1.000
    O414    O    0.53451   0.83016   0.60805   1.000
    O415    O    0.35276   0.60258   0.59815   1.000
    O416    O    0.33918   0.54264   0.61523   1.000
    O417    O    0.64218   0.79039   0.62022   1.000
    O418    O    0.30663   0.65370   0.62146   1.000
    O419    O    0.25292   0.83202   0.62654   1.000
    O420    O    0.27179   0.76788   0.62708   1.000
    O421    O    0.69204   0.73211   0.62898   1.000
    O422    O    0.74121   0.67567   0.63625   1.000
    O423    O    0.69611   0.19632   0.63451   1.000
    O424    O    0.66105   0.24824   0.64567   1.000
    O425    O    0.79236   0.61826   0.64230   1.000
    O426    O    0.85424   0.57649   0.65016   1.000
    O427    O    0.23157   0.01330   0.66019   1.000
    O428    O    0.32188   0.49108   0.63270   1.000
    O429    O    0.27934   0.53372   0.65558   1.000
    O430    O    0.62111   0.30789   0.65415   1.000
    O431    O    0.58599   0.36163   0.65859   1.000
    O432    O    0.63623   0.73950   0.67766   1.000
    O433    O    0.26056   0.70723   0.64401   1.000
    O434    O    0.24726   0.64469   0.66186   1.000
    O435    O    0.19859   0.82434   0.66392   1.000
    O436    O    0.20784   0.90397   0.67834   1.000
    O437    O    0.91427   0.53626   0.65869   1.000
    O438    O    0.97617   0.49645   0.66854   1.000
    O439    O    0.21746   0.76020   0.66447   1.000
    O440    O    0.73401   0.62719   0.69207   1.000
    O441    O    0.03452   0.45911   0.67810   1.000
    O442    O    0.10547   0.40757   0.68827   1.000
    O443    O    0.64343   0.26219   0.70795   1.000
    O444    O    0.19648   0.13235   0.69673   1.000
    O445    O    0.87183   0.55876   0.70163   1.000
    O446    O    0.23355   0.58466   0.67890   1.000
    O447    O    0.21770   0.52340   0.69556   1.000
    O448    O    0.19565   0.63269   0.69737   1.000
    O449    O    0.16428   0.32363   0.69992   1.000
    O450    O    0.16449   0.25959   0.71886   1.000
    O451    O    0.20838   0.96606   0.70198   1.000
    O452    O    0.19413   0.02337   0.71830   1.000
    O453    O    0.99257   0.48139   0.72595   1.000
    O454    O    0.17851   0.40357   0.70930   1.000
    O455    O    0.20166   0.46595   0.71007   1.000
    O456    O    0.58816   0.74195   0.72355   1.000
    O457    O    0.62898   0.69056   0.73409   1.000
    O458    O    0.12676   0.33162   0.75409   1.000
    O459    O    0.15968   0.51323   0.73330   1.000
    O460    O    0.17785   0.08446   0.73443   1.000
    O461    O    0.16117   0.14440   0.74837   1.000
    O462    O    0.67760   0.63469   0.74125   1.000
    O463    O    0.72340   0.58651   0.74344   1.000
    O464    O    0.15444   0.03365   0.78002   1.000
    O465    O    0.66373   0.21946   0.76148   1.000
    O466    O    0.62659   0.27394   0.76886   1.000
    O467    O    0.14368   0.20687   0.76182   1.000
    O468    O    0.12697   0.26758   0.77302   1.000
    O469    O    0.08893   0.50236   0.78502   1.000
    O470    O    0.62021   0.64106   0.79242   1.000
    O471    O    0.01591   0.48136   0.78862   1.000
    O472    O    0.12095   0.15347   0.80776   1.000
    O473    O    0.66289   0.20114   0.82571   1.000
    O474    O    0.62575   0.25562   0.83308   1.000
    O475    O    0.60737   0.53384   0.83288   1.000
    O476    O    0.13146   0.99113   0.82241   1.000
    O477    O    0.11432   0.04260   0.83990   1.000
    O478    O    0.06721   0.43657   0.86108   1.000
    O479    O    0.02977   0.49090   0.86858   1.000
    O480    O    0.59552   0.58941   0.84045   1.000
    O481    O    0.57880   0.64928   0.85420   1.000
    O482    O    0.09752   0.10247   0.85369   1.000
    O483    O    0.08559   0.15804   0.86129   1.000
    O484    O    0.57206   0.53844   0.88642   1.000
    O485    O    0.56174   0.70075   0.87167   1.000
    O486    O    0.07286   0.05079   0.90169   1.000
    O487    O    0.67696   0.21071   0.90560   1.000
    O488    O    0.60393   0.18982   0.90929   1.000
    O489    O    0.53873   0.65826   0.91407   1.000
    O490    O    0.56594   0.42436   0.92123   1.000
    O491    O    0.56621   0.36031   0.94020   1.000
    O492    O    0.06639   0.41816   0.92529   1.000
    O493    O    0.02896   0.47249   0.93279   1.000
    O494    O    0.54932   0.48507   0.93241   1.000
    O495    O    0.53190   0.54754   0.94582   1.000
    O496    O    0.96967   0.10534   0.95064   1.000
    O497    O    0.01546   0.05715   0.95283   1.000
    O498    O    0.06407   0.00127   0.96000   1.000
    O499    O    0.53323   0.17890   0.96108   1.000
    O500    O    0.51528   0.60749   0.95973   1.000
    O501    O    0.10489   0.94989   0.97054   1.000
    O502    O    0.49121   0.22612   0.98437   1.000
    O503    O    0.51445   0.28841   0.98511   1.000
loop_
    _geom_bond_atom_site_label_1
    _geom_bond_atom_site_label_2
    _geom_bond_distance
    _geom_bond_site_symmetry_2
    _ccdc_geom_bond_type
    C70    O228      0.63743      .   S
    C187   O228      0.63743      .   S
    C70    O229      0.74506      .   S
    C71    O229      0.74506      .   S
    C70    O230      0.64168  1_554   S
    C186   O230      0.64168      .   S
    C67    O231      0.63741      .   S
    C182   O231      0.63741      .   S
    C67    O232      0.74473  1_554   S
    C63    O232      0.74473      .   S
    C67    O233      0.64194  1_554   S
    C183   O233      0.64194      .   S
    C181   O234      0.64207  1_554   S
    C60    O234      0.64207      .   S
    C181   O235      1.02816  1_554   S
    C0     O235      1.02816      .   S
    C221   O236      0.64225      .   S
    C160   O236      0.64225      .   S
    C221   O237      1.02780      .   S
    C10    O237      1.02780      .   S
    C162   O238      0.69970      .   S
    C163   O238      0.69970      .   S
    C162   O239      0.69881      .   S
    C161   O239      0.69881      .   S
    C162   O240      0.54387  1_554   S
    C52    O240      0.54387      .   S
    C46    O241      0.54481      .   S
    C146   O241      0.54481      .   S
    C163   O242      0.70125      .   S
    C164   O242      0.70125      .   S
    C163   O243      0.74496  1_554   S
    C167   O243      0.74496      .   S
    C76    O244      0.70117      .   S
    C71    O244      0.70117      .   S
    C76    O245      0.70181      .   S
    C75    O245      0.70181      .   S
    C76    O246      0.54367  1_554   S
    C18    O246      0.54367      .   S
    C12    O247      0.54371  1_554   S
    C62    O247      0.54371      .   S
    C141   O248      0.70036      .   S
    C146   O248      0.70036      .   S
    C141   O249      0.69881      .   S
    C142   O249      0.69881      .   S
    C141   O250      0.74241  1_554   S
    C140   O250      0.74241      .   S
    C187   O251      0.98458      .   S
    C0     O251      0.98458  1_556   S
    C77    O252      0.74098      .   S
    C75    O252      0.74098      .   S
    C77    O253      0.70113      .   S
    C98    O253      0.70113  1_565   S
    C77    O254      0.70103      .   S
    C78    O254      0.70103  1_556   S
    C160   O255      0.74229      .   S
    C161   O255      0.74229  1_545   S
    C160   O256      0.64212      .   S
    C220   O256      0.64212      .   S
    C44    O257      0.54385      .   S
    C142   O257      0.54385  1_455   S
    C10    O258      1.03183      .   S
    C220   O258      1.03183      .   S
    C10    O259      0.98442      .   S
    C227   O259      0.98442      .   S
    C10    O260      0.96954      .   S
    C183   O260      0.96954  1_556   S
    C71    O261      0.69984      .   S
    C72    O261      0.69984      .   S
    C161   O262      0.70036      .   S
    C166   O262      0.70036      .   S
    C97    O263      0.70079      .   S
    C98    O263      0.70079  1_655   S
    C97    O264      0.74095      .   S
    C95    O264      0.74095      .   S
    C97    O265      0.70084      .   S
    C118   O265      0.70084  1_556   S
    C146   O266      0.70120      .   S
    C145   O266      0.70120      .   S
    C164   O267      0.54456      .   S
    C53    O267      0.54456      .   S
    C164   O268      0.70123      .   S
    C165   O268      0.70123      .   S
    C55    O269      0.54522      .   S
    C169   O269      0.54522      .   S
    C182   O270      0.98524      .   S
    C11    O270      0.98524      .   S
    C75    O271      0.70117      .   S
    C74    O271      0.70117      .   S
    C142   O272      0.69987      .   S
    C143   O272      0.69987      .   S
    C25    O273      0.54478      .   S
    C94    O273      0.54478      .   S
    C98    O274      0.54528      .   S
    C27    O274      0.54528      .   S
    C166   O275      0.70110      .   S
    C165   O275      0.70110      .   S
    C166   O276      0.54477      .   S
    C54    O276      0.54477      .   S
    C95    O277      0.70127      .   S
    C94    O277      0.70127      .   S
    C95    O278      0.70117      .   S
    C96    O278      0.70117      .   S
    C165   O279      0.74082      .   S
    C168   O279      0.74082      .   S
    C94    O280      0.70029      .   S
    C93    O280      0.70029      .   S
    C193   O281      1.03078      .   S
    C11    O281      1.03078      .   S
    C193   O282      0.64233      .   S
    C99    O282      0.64233      .   S
    C169   O283      0.70066      .   S
    C168   O283      0.70066      .   S
    C169   O284      0.70101      .   S
    C148   O284      0.70101      .   S
    C72    O285      0.54386      .   S
    C16    O285      0.54386      .   S
    C72    O286      0.69875      .   S
    C73    O286      0.69875      .   S
    C145   O287      0.74089      .   S
    C148   O287      0.74089      .   S
    C145   O288      0.70050      .   S
    C144   O288      0.70050      .   S
    C227   O289      0.63743      .   S
    C170   O289      0.63743      .   S
    C26    O290      0.54464      .   S
    C96    O290      0.54464  1_455   S
    C96    O291      0.70100      .   S
    C91    O291      0.70100      .   S
    C74    O292      0.70031      .   S
    C73    O292      0.70031      .   S
    C74    O293      0.54480      .   S
    C17    O293      0.54480      .   S
    C93    O294      0.74255      .   S
    C99    O294      0.74255      .   S
    C93    O295      0.69876      .   S
    C92    O295      0.69876      .   S
    C168   O296      0.70134      .   S
    C129   O296      0.70134      .   S
    C11    O297      1.02933      .   S
    C192   O297      1.02933      .   S
    C11    O298      0.97004      .   S
    C226   O298      0.97004      .   S
    C143   O299      0.70076      .   S
    C144   O299      0.70076      .   S
    C143   O300      0.74498  1_455   S
    C147   O300      0.74498      .   S
    C99    O301      0.64197      .   S
    C192   O301      0.64197      .   S
    C148   O302      0.70071      .   S
    C149   O302      0.70071      .   S
    C214   O303      0.63741      .   S
    C147   O303      0.63741      .   S
    C214   O304      0.98210      .   S
    C3     O304      0.98210      .   S
    C73    O305      0.74248      .   S
    C79    O305      0.74248      .   S
    C56    O306      0.54383      .   S
    C172   O306      0.54383      .   S
    C144   O307      0.54471      .   S
    C45    O307      0.54471      .   S
    C91    O308      0.69990      .   S
    C92    O308      0.69990      .   S
    C91    O309      0.74499      .   S
    C90    O309      0.74499      .   S
    C92    O310      0.54384      .   S
    C24    O310      0.54384      .   S
    C224   O311      1.02524      .   S
    C3     O311      1.02524      .   S
    C224   O312      0.64234      .   S
    C179   O312      0.64234      .   S
    C170   O313      0.64181      .   S
    C226   O313      0.64181      .   S
    C170   O314      0.74496      .   S
    C171   O314      0.74496      .   S
    C147   O315      0.64182      .   S
    C215   O315      0.64182      .   S
    C194   O316      0.97139      .   S
    C3     O316      0.97139      .   S
    C194   O317      0.64183      .   S
    C90    O317      0.64183  1_455   S
    C129   O318      0.54529      .   S
    C39    O318      0.54529      .   S
    C129   O319      0.70092      .   S
    C128   O319      0.70092      .   S
    C3     O320      1.03484      .   S
    C225   O320      1.03484      .   S
    C90    O321      0.63745      .   S
    C195   O321      0.63745      .   S
    C172   O322      0.69979      .   S
    C171   O322      0.69979      .   S
    C172   O323      0.69867      .   S
    C173   O323      0.69867      .   S
    C149   O324      0.70123      .   S
    C128   O324      0.70123      .   S
    C149   O325      0.54532      .   S
    C47    O325      0.54532      .   S
    C171   O326      0.70098      .   S
    C176   O326      0.70098      .   S
    C79    O327      0.64216      .   S
    C184   O327      0.64216      .   S
    C79    O328      0.64215      .   S
    C185   O328      0.64215      .   S
    C195   O329      0.98465      .   S
    C2     O329      0.98465  1_655   S
    C179   O330      0.74249      .   S
    C173   O330      0.74249      .   S
    C179   O331      0.64202      .   S
    C225   O331      0.64202      .   S
    C128   O332      0.74099      .   S
    C125   O332      0.74099      .   S
    C215   O333      0.97001      .   S
    C2     O333      0.97001      .   S
    C173   O334      0.70027      .   S
    C174   O334      0.70027      .   S
    C184   O335      1.02841      .   S
    C7     O335      1.02841      .   S
    C185   O336      1.03142      .   S
    C7     O336      1.03142      .   S
    C38    O337      0.54479      .   S
    C126   O337      0.54479      .   S
    C176   O338      0.54464      .   S
    C58    O338      0.54464      .   S
    C176   O339      0.70131      .   S
    C175   O339      0.70131      .   S
    C2     O340      1.03251      .   S
    C188   O340      1.03251      .   S
    C2     O341      1.02777      .   S
    C189   O341      1.02777  1_455   S
    C125   O342      0.70140      .   S
    C126   O342      0.70140      .   S
    C125   O343      0.70128      .   S
    C124   O343      0.70128      .   S
    C174   O344      0.70138      .   S
    C175   O344      0.70138      .   S
    C174   O345      0.54483      .   S
    C57    O345      0.54483      .   S
    C126   O346      0.70034      .   S
    C121   O346      0.70034      .   S
    C37    O347      0.54463      .   S
    C124   O347      0.54463      .   S
    C175   O348      0.74104      .   S
    C177   O348      0.74104      .   S
    C7     O349      0.96993      .   S
    C210   O349      0.96993      .   S
    C7     O350      0.98499      .   S
    C198   O350      0.98499      .   S
    C124   O351      0.70091      .   S
    C123   O351      0.70091      .   S
    C204   O352      0.64201      .   S
    C120   O352      0.64201      .   S
    C204   O353      1.03325      .   S
    C6     O353      1.03325      .   S
    C188   O354      0.64208      .   S
    C80    O354      0.64208      .   S
    C189   O355      0.64228  1_455   S
    C80    O355      0.64228      .   S
    C121   O356      0.74256  1_455   S
    C120   O356      0.74256      .   S
    C121   O357      0.69872      .   S
    C122   O357      0.69872      .   S
    C43    O358      0.54531      .   S
    C138   O358      0.54531      .   S
    C210   O359      0.64188      .   S
    C130   O359      0.64188      .   S
    C177   O360      0.70127      .   S
    C138   O360      0.70127      .   S
    C177   O361      0.70093      .   S
    C178   O361      0.70093      .   S
    C198   O362      0.63737      .   S
    C107   O362      0.63737      .   S
    C120   O363      0.64229      .   S
    C205   O363      0.64229      .   S
    C80    O364      0.74248      .   S
    C81    O364      0.74248      .   S
    C123   O365      0.69979      .   S
    C122   O365      0.69979      .   S
    C123   O366      0.74493  1_545   S
    C127   O366      0.74493      .   S
    C59    O367      0.54531      .   S
    C178   O367      0.54531      .   S
    C42    O368      0.54467      .   S
    C136   O368      0.54467      .   S
    C138   O369      0.70035      .   S
    C137   O369      0.70035      .   S
    C122   O370      0.54375  1_545   S
    C36    O370      0.54375      .   S
    C107   O371      0.64188  1_545   S
    C199   O371      0.64188      .   S
    C107   O372      0.74493  1_545   S
    C103   O372      0.74493      .   S
    C28    O373      0.54378  1_545   S
    C102   O373      0.54378      .   S
    C6     O374      0.96952      .   S
    C199   O374      0.96952  1_565   S
    C6     O375      1.02713      .   S
    C205   O375      1.02713      .   S
    C6     O376      0.98432      .   S
    C211   O376      0.98432      .   S
    C178   O377      0.70071      .   S
    C157   O377      0.70071      .   S
    C207   O378      0.64186      .   S
    C127   O378      0.64186      .   S
    C207   O379      0.96995      .   S
    C4     O379      0.96995      .   S
    C130   O380      0.63740      .   S
    C211   O380      0.63740      .   S
    C130   O381      0.74487      .   S
    C131   O381      0.74487      .   S
    C127   O382      0.63741      .   S
    C206   O382      0.63741      .   S
    C197   O383      0.64197  1_545   S
    C100   O383      0.64197      .   S
    C197   O384      1.02886  1_545   S
    C4     O384      1.02886      .   S
    C102   O385      0.69988      .   S
    C103   O385      0.69988      .   S
    C102   O386      0.69881      .   S
    C101   O386      0.69881      .   S
    C22    O387      0.54532      .   S
    C86    O387      0.54532      .   S
    C103   O388      0.70082      .   S
    C104   O388      0.70082      .   S
    C136   O389      0.70095      .   S
    C131   O389      0.70095      .   S
    C136   O390      0.70107      .   S
    C135   O390      0.70107      .   S
    C81    O391      0.70035      .   S
    C86    O391      0.70035      .   S
    C81    O392      0.69878      .   S
    C82    O392      0.69878      .   S
    C137   O393      0.74103      .   S
    C135   O393      0.74103      .   S
    C137   O394      0.70118      .   S
    C158   O394      0.70118      .   S
    C20    O395      0.54385  1_455   S
    C82    O395      0.54385      .   S
    C100   O396      0.74261      .   S
    C101   O396      0.74261      .   S
    C100   O397      0.64227      .   S
    C196   O397      0.64227      .   S
    C131   O398      0.69988      .   S
    C132   O398      0.69988      .   S
    C4     O399      1.03141      .   S
    C196   O399      1.03141      .   S
    C4     O400      0.98486  1_565   S
    C203   O400      0.98486      .   S
    C157   O401      0.70084      .   S
    C158   O401      0.70084      .   S
    C157   O402      0.74113      .   S
    C155   O402      0.74113      .   S
    C101   O403      0.70031      .   S
    C106   O403      0.70031      .   S
    C86    O404      0.70124      .   S
    C85    O404      0.70124      .   S
    C104   O405      0.54475      .   S
    C29    O405      0.54475      .   S
    C104   O406      0.70120      .   S
    C105   O406      0.70120      .   S
    C31    O407      0.54525      .   S
    C109   O407      0.54525      .   S
    C206   O408      0.98447      .   S
    C5     O408      0.98447      .   S
    C135   O409      0.70120      .   S
    C134   O409      0.70120      .   S
    C82    O410      0.69992      .   S
    C83    O410      0.69992      .   S
    C49    O411      0.54484      .   S
    C154   O411      0.54484      .   S
    C158   O412      0.54530      .   S
    C51    O412      0.54530      .   S
    C106   O413      0.70132      .   S
    C105   O413      0.70132      .   S
    C106   O414      0.54479      .   S
    C30    O414      0.54479      .   S
    C155   O415      0.70104      .   S
    C154   O415      0.70104      .   S
    C155   O416      0.70117      .   S
    C156   O416      0.70117      .   S
    C105   O417      0.74097      .   S
    C108   O417      0.74097      .   S
    C154   O418      0.70032      .   S
    C153   O418      0.70032      .   S
    C217   O419      1.03123      .   S
    C5     O419      1.03123      .   S
    C217   O420      0.64226      .   S
    C159   O420      0.64226      .   S
    C109   O421      0.70084      .   S
    C108   O421      0.70084      .   S
    C109   O422      0.70125      .   S
    C88    O422      0.70125      .   S
    C132   O423      0.54386      .   S
    C40    O423      0.54386      .   S
    C132   O424      0.69350      .   S
    C133   O424      0.69350      .   S
    C85    O425      0.74104      .   S
    C88    O425      0.74104      .   S
    C85    O426      0.70127      .   S
    C84    O426      0.70127      .   S
    C203   O427      0.63737      .   S
    C110   O427      0.63737  1_565   S
    C50    O428      0.54446      .   S
    C156   O428      0.54446      .   S
    C156   O429      0.70118      .   S
    C151   O429      0.70118      .   S
    C134   O430      0.69824      .   S
    C133   O430      0.69824      .   S
    C134   O431      0.54482      .   S
    C41    O431      0.54482      .   S
    C108   O432      0.70103      .   S
    C69    O432      0.70103      .   S
    C153   O433      0.74237      .   S
    C159   O433      0.74237      .   S
    C153   O434      0.69882      .   S
    C152   O434      0.69882      .   S
    C5     O435      1.02860      .   S
    C216   O435      1.02860      .   S
    C5     O436      0.96983      .   S
    C202   O436      0.96983      .   S
    C83    O437      0.70097      .   S
    C84    O437      0.70097      .   S
    C83    O438      0.74506      .   S
    C87    O438      0.74506  1_455   S
    C159   O439      0.64198      .   S
    C216   O439      0.64198      .   S
    C88    O440      0.70083      .   S
    C89    O440      0.70083      .   S
    C190   O441      0.63737      .   S
    C87    O441      0.63737      .   S
    C190   O442      0.98490      .   S
    C9     O442      0.98490      .   S
    C133   O443      0.75018      .   S
    C139   O443      0.75018      .   S
    C32    O444      0.54381      .   S
    C112   O444      0.54381      .   S
    C84    O445      0.54463      .   S
    C21    O445      0.54463      .   S
    C151   O446      0.69994      .   S
    C152   O446      0.69994      .   S
    C151   O447      0.74513      .   S
    C150   O447      0.74513      .   S
    C152   O448      0.54391      .   S
    C48    O448      0.54391      .   S
    C200   O449      1.02796      .   S
    C9     O449      1.02796      .   S
    C200   O450      0.64231      .   S
    C119   O450      0.64231      .   S
    C110   O451      0.64183      .   S
    C202   O451      0.64183      .   S
    C110   O452      0.74488  1_565   S
    C111   O452      0.74488      .   S
    C87    O453      0.64196  1_455   S
    C191   O453      0.64196      .   S
    C218   O454      0.96962      .   S
    C9     O454      0.96962      .   S
    C218   O455      0.64201      .   S
    C150   O455      0.64201      .   S
    C69    O456      0.54530      .   S
    C15    O456      0.54530      .   S
    C69    O457      0.70075      .   S
    C68    O457      0.70075      .   S
    C9     O458      1.03217      .   S
    C201   O458      1.03217      .   S
    C150   O459      0.63731      .   S
    C219   O459      0.63731      .   S
    C112   O460      0.69989      .   S
    C111   O460      0.69989      .   S
    C112   O461      0.69878      .   S
    C113   O461      0.69878      .   S
    C89    O462      0.70110      .   S
    C68    O462      0.70110      .   S
    C89    O463      0.54527      .   S
    C23    O463      0.54527      .   S
    C111   O464      0.70092      .   S
    C116   O464      0.70092      .   S
    C139   O465      0.64191      .   S
    C208   O465      0.64191      .   S
    C139   O466      0.64237      .   S
    C209   O466      0.64237      .   S
    C119   O467      0.74251      .   S
    C113   O467      0.74251      .   S
    C119   O468      0.64203      .   S
    C201   O468      0.64203      .   S
    C219   O469      0.98576      .   S
    C8     O469      0.98576      .   S
    C68    O470      0.74080      .   S
    C65    O470      0.74080      .   S
    C191   O471      0.97011  1_655   S
    C8     O471      0.97011      .   S
    C113   O472      0.70037      .   S
    C114   O472      0.70037      .   S
    C208   O473      1.03035      .   S
    C1     O473      1.03035      .   S
    C209   O474      1.03037      .   S
    C1     O474      1.03037      .   S
    C14    O475      0.54477      .   S
    C66    O475      0.54477      .   S
    C116   O476      0.54453  1_545   S
    C34    O476      0.54453      .   S
    C116   O477      0.70115      .   S
    C115   O477      0.70115      .   S
    C8     O478      1.03054      .   S
    C212   O478      1.03054      .   S
    C8     O479      1.02996      .   S
    C213   O479      1.02996      .   S
    C65    O480      0.70116      .   S
    C66    O480      0.70116      .   S
    C65    O481      0.70077      .   S
    C64    O481      0.70077      .   S
    C114   O482      0.70116      .   S
    C115   O482      0.70116      .   S
    C114   O483      0.54484      .   S
    C33    O483      0.54484      .   S
    C66    O484      0.70039      .   S
    C61    O484      0.70039      .   S
    C13    O485      0.54464      .   S
    C64    O485      0.54464      .   S
    C115   O486      0.74083      .   S
    C117   O486      0.74083      .   S
    C1     O487      0.97047      .   S
    C186   O487      0.97047      .   S
    C1     O488      0.98539      .   S
    C222   O488      0.98539      .   S
    C64    O489      0.70121      .   S
    C63    O489      0.70121      .   S
    C180   O490      0.64213      .   S
    C60    O490      0.64213      .   S
    C180   O491      1.03185      .   S
    C0     O491      1.03185      .   S
    C212   O492      0.64231      .   S
    C140   O492      0.64231      .   S
    C213   O493      0.64197      .   S
    C140   O493      0.64197      .   S
    C61    O494      0.74252      .   S
    C60    O494      0.74252      .   S
    C61    O495      0.69879      .   S
    C62    O495      0.69879      .   S
    C19    O496      0.54506      .   S
    C78    O496      0.54506      .   S
    C117   O497      0.70094      .   S
    C78    O497      0.70094  1_655   S
    C117   O498      0.70068      .   S
    C118   O498      0.70068  1_565   S
    C222   O499      0.63734      .   S
    C167   O499      0.63734      .   S
    C63    O500      0.69988      .   S
    C62    O500      0.69988      .   S
    C35    O501      0.54531      .   S
    C118   O501      0.54531      .   S
    C167   O502      0.64194      .   S
    C223   O502      0.64194      .   S
    C0     O503      0.96996      .   S
    C223   O503      0.96996      .   S
