# CIF file generated by openbabel 2.4.90, see http://openbabel.sf.net
data_I
_chemical_name_common ''
_cell_length_a 10.3935
_cell_length_b 17.884
_cell_length_c 21.009
_cell_angle_alpha 90.126
_cell_angle_beta 90.167
_cell_angle_gamma 90.149
_space_group_name_H-M_alt 'P 1'
_space_group_name_Hall 'P 1'
loop_
    _symmetry_equiv_pos_as_xyz
    x,y,z
loop_
    _atom_site_label
    _atom_site_type_symbol
    _atom_site_fract_x
    _atom_site_fract_y
    _atom_site_fract_z
    _atom_site_occupancy
    Zr0     Zr   0.84371   0.12467   0.69455   1.000
    Zr1     Zr   0.85018   0.12473   0.19467   1.000
    Zr2     Zr   0.64961   0.62505   0.80261   1.000
    Zr3     Zr   0.65022   0.62489   0.30518   1.000
    Zr4     Zr   0.15028   0.37163   0.94972   1.000
    Zr5     Zr   0.14999   0.37168   0.45022   1.000
    Zr6     Zr   0.33922   0.87198   0.55289   1.000
    Zr7     Zr   0.34491   0.86907   0.05532   1.000
    Zr8     Zr   0.72127   0.00824   0.68752   1.000
    Zr9     Zr   0.72881   0.00778   0.18775   1.000
    Zr10    Zr   0.62243   0.73963   0.74112   1.000
    Zr11    Zr   0.62828   0.73991   0.24381   1.000
    Zr12    Zr   0.77036   0.50838   0.81016   1.000
    Zr13    Zr   0.77071   0.50786   0.31105   1.000
    Zr14    Zr   0.86637   0.23971   0.75607   1.000
    Zr15    Zr   0.87400   0.23960   0.25649   1.000
    Zr16    Zr   0.27570   0.48612   0.93986   1.000
    Zr17    Zr   0.27346   0.48717   0.44097   1.000
    Zr18    Zr   0.36648   0.75817   0.49054   1.000
    Zr19    Zr   0.37202   0.75568   0.00000   1.000
    Zr20    Zr   0.21919   0.98846   0.56310   1.000
    Zr21    Zr   0.22465   0.98592   0.06231   1.000
    Zr22    Zr   0.12835   0.25519   0.00904   1.000
    Zr23    Zr   0.12291   0.25830   0.51284   1.000
    Zr24    Zr   0.67820   0.06923   0.66383   1.000
    Zr25    Zr   0.68828   0.06798   0.16157   1.000
    Zr26    Zr   0.82816   0.00605   0.71705   1.000
    Zr27    Zr   0.83310   0.00645   0.21952   1.000
    Zr28    Zr   0.57234   0.67807   0.72217   1.000
    Zr29    Zr   0.57777   0.67833   0.22487   1.000
    Zr30    Zr   0.68988   0.74303   0.79179   1.000
    Zr31    Zr   0.69455   0.74346   0.29474   1.000
    Zr32    Zr   0.81139   0.56891   0.83600   1.000
    Zr33    Zr   0.81228   0.56873   0.33627   1.000
    Zr34    Zr   0.66657   0.50675   0.77797   1.000
    Zr35    Zr   0.66545   0.50572   0.28027   1.000
    Zr36    Zr   0.91645   0.17828   0.77503   1.000
    Zr37    Zr   0.92679   0.17890   0.27509   1.000
    Zr38    Zr   0.80011   0.24302   0.70514   1.000
    Zr39    Zr   0.80580   0.24176   0.20600   1.000
    Zr40    Zr   0.31569   0.42562   0.91426   1.000
    Zr41    Zr   0.31227   0.42727   0.41393   1.000
    Zr42    Zr   0.17235   0.48775   0.97241   1.000
    Zr43    Zr   0.17197   0.48787   0.47489   1.000
    Zr44    Zr   0.42054   0.81870   0.47252   1.000
    Zr45    Zr   0.42642   0.81635   0.00000   1.000
    Zr46    Zr   0.29451   0.75631   0.53962   1.000
    Zr47    Zr   0.30067   0.75320   0.04167   1.000
    Zr48    Zr   0.17804   0.92801   0.58852   1.000
    Zr49    Zr   0.18350   0.92578   0.08844   1.000
    Zr50    Zr   0.32215   0.98978   0.53041   1.000
    Zr51    Zr   0.32832   0.98703   0.03035   1.000
    Zr52    Zr   0.07779   0.31622   0.02876   1.000
    Zr53    Zr   0.06778   0.31858   0.53045   1.000
    Zr54    Zr   0.19464   0.25295   0.95829   1.000
    Zr55    Zr   0.19465   0.25636   0.46365   1.000
    O56     O    0.39922   0.78602   0.00000   1.000
    O57     O    0.33634   0.75444   0.02083   1.000
    O58     O    0.38566   0.84271   0.02766   1.000
    O59     O    0.10307   0.28571   0.01890   1.000
    O60     O    0.16149   0.25407   0.98366   1.000
    O61     O    0.11404   0.34392   0.98924   1.000
    O62     O    0.33661   0.92805   0.04283   1.000
    O63     O    0.27649   0.98647   0.04633   1.000
    O64     O    0.32279   0.81114   0.04849   1.000
    O65     O    0.26420   0.89742   0.07188   1.000
    O66     O    0.20408   0.95585   0.07537   1.000
    O67     O    0.70854   0.03788   0.17466   1.000
    O68     O    0.76923   0.09636   0.17812   1.000
    O69     O    0.78095   0.00712   0.20364   1.000
    O70     O    0.82799   0.18324   0.20034   1.000
    O71     O    0.84164   0.06559   0.20710   1.000
    O72     O    0.88848   0.15182   0.23488   1.000
    O73     O    0.83990   0.24068   0.23124   1.000
    O74     O    0.60302   0.70912   0.23434   1.000
    O75     O    0.61399   0.65161   0.26502   1.000
    O76     O    0.66142   0.74168   0.26928   1.000
    O77     O    0.90040   0.20925   0.26579   1.000
    O78     O    0.65783   0.56530   0.29272   1.000
    O79     O    0.71808   0.50679   0.29566   1.000
    O80     O    0.67239   0.68417   0.29996   1.000
    O81     O    0.73125   0.59681   0.32072   1.000
    O82     O    0.79149   0.53829   0.32366   1.000
    O83     O    0.29287   0.45722   0.42745   1.000
    O84     O    0.23113   0.39948   0.43207   1.000
    O85     O    0.22272   0.48752   0.45793   1.000
    O86     O    0.17232   0.31402   0.45694   1.000
    O87     O    0.16098   0.42978   0.46255   1.000
    O88     O    0.10889   0.34513   0.49034   1.000
    O89     O    0.15878   0.25733   0.48825   1.000
    O90     O    0.39351   0.78843   0.48153   1.000
    O91     O    0.37988   0.84534   0.51271   1.000
    O92     O    0.33050   0.75724   0.51508   1.000
    O93     O    0.09534   0.28844   0.52165   1.000
    O94     O    0.33068   0.93088   0.54165   1.000
    O95     O    0.27067   0.98912   0.54676   1.000
    O96     O    0.31686   0.81414   0.54626   1.000
    O97     O    0.25863   0.89999   0.57070   1.000
    O98     O    0.19861   0.95824   0.57581   1.000
    O99     O    0.69974   0.03874   0.67568   1.000
    O100    O    0.76096   0.09695   0.67919   1.000
    O101    O    0.77472   0.00715   0.70228   1.000
    O102    O    0.82191   0.18385   0.69984   1.000
    O103    O    0.83594   0.06536   0.70580   1.000
    O104    O    0.88008   0.15148   0.73479   1.000
    O105    O    0.83324   0.24136   0.73061   1.000
    O106    O    0.59739   0.70885   0.73164   1.000
    O107    O    0.61097   0.65156   0.76239   1.000
    O108    O    0.65616   0.74133   0.76645   1.000
    O109    O    0.89141   0.20899   0.76555   1.000
    O110    O    0.65809   0.56590   0.79029   1.000
    O111    O    0.71847   0.50757   0.79407   1.000
    O112    O    0.66974   0.68404   0.79720   1.000
    O113    O    0.73050   0.59698   0.81930   1.000
    O114    O    0.79088   0.53865   0.82308   1.000
    O115    O    0.29570   0.45587   0.92706   1.000
    O116    O    0.23299   0.39863   0.93199   1.000
    O117    O    0.22402   0.48694   0.95614   1.000
    O118    O    0.17246   0.31229   0.95400   1.000
    O119    O    0.16132   0.42969   0.96107   1.000
    N120    N    0.58061   0.87255   0.16933   1.000
    O121    O    0.63556   0.92260   0.17651   1.000
    O122    O    0.49779   0.87134   0.12947   1.000
    O123    O    0.59899   0.82351   0.19698   1.000
    N124    N    0.91552   0.37315   0.83135   1.000
    O125    O    0.86170   0.42317   0.82302   1.000
    O126    O    0.89654   0.32376   0.80328   1.000
    O127    O    0.99822   0.37278   0.87323   1.000
    N128    N    0.08068   0.12148   0.08168   1.000
    O129    O    0.09901   0.17090   0.05473   1.000
    O130    O    0.13399   0.07134   0.07416   1.000
    O131    O    0.00008   0.12255   0.12101   1.000
    N132    N    0.91892   0.37321   0.33146   1.000
    O133    O    0.00028   0.37254   0.37332   1.000
    O134    O    0.86401   0.42307   0.32339   1.000
    O135    O    0.90162   0.32386   0.30349   1.000
    N136    N    0.07554   0.12382   0.58387   1.000
    O137    O    0.09382   0.17356   0.55765   1.000
    O138    O    0.12892   0.07379   0.57599   1.000
    O139    O    0.99413   0.12402   0.62199   1.000
    N140    N    0.57366   0.87312   0.66785   1.000
    O141    O    0.49121   0.87262   0.62772   1.000
    O142    O    0.59236   0.82375   0.69505   1.000
    O143    O    0.62836   0.92313   0.67554   1.000
    N144    N    0.41708   0.62317   0.41942   1.000
    O145    O    0.49905   0.62374   0.37947   1.000
    O146    O    0.39764   0.67307   0.44585   1.000
    O147    O    0.36379   0.57286   0.42779   1.000
    N148    N    0.54187   0.73562   0.00000   1.000
    N149    N    0.40421   0.60788   0.92734   1.000
    O150    O    0.35856   0.56466   0.93124   1.000
    O151    O    0.37578   0.66375   0.97409   1.000
    O152    O    0.39361   0.66437   0.96367   1.000
    O153    O    0.49267   0.61604   0.88242   1.000
loop_
    _geom_bond_atom_site_label_1
    _geom_bond_atom_site_label_2
    _geom_bond_distance
    _geom_bond_site_symmetry_2
    _ccdc_geom_bond_type
    Zr19   O56       0.61109      .   S
    Zr45   O56       0.61109      .   S
    Zr19   O57       0.57491      .   S
    Zr47   O57       0.57491      .   S
    Zr45   O58       0.86055      .   S
    Zr7    O58       0.86055      .   S
    Zr22   O59       0.64055      .   S
    Zr52   O59       0.64055      .   S
    Zr22   O60       0.63589  1_554   S
    Zr54   O60       0.63589      .   S
    Zr52   O61       1.03893  1_554   S
    Zr4    O61       1.03893      .   S
    Zr51   O62       1.09107      .   S
    Zr7    O62       1.09107      .   S
    Zr51   O63       0.63572      .   S
    Zr21   O63       0.63572      .   S
    Zr47   O64       1.06991      .   S
    Zr7    O64       1.06991      .   S
    Zr7    O65       1.04157      .   S
    Zr49   O65       1.04157      .   S
    Zr21   O66       0.64084      .   S
    Zr49   O66       0.64084      .   S
    Zr25   O67       0.64086      .   S
    Zr9    O67       0.64086      .   S
    Zr25   O68       1.03999      .   S
    Zr1    O68       1.03999      .   S
    Zr9    O69       0.63578      .   S
    Zr27   O69       0.63578      .   S
    Zr1    O70       1.07852      .   S
    Zr39   O70       1.07852      .   S
    Zr1    O71       1.09336      .   S
    Zr27   O71       1.09336      .   S
    Zr1    O72       1.04971      .   S
    Zr37   O72       1.04971      .   S
    Zr39   O73       0.63739      .   S
    Zr15   O73       0.63739      .   S
    Zr29   O74       0.64042      .   S
    Zr11   O74       0.64042      .   S
    Zr29   O75       1.04052      .   S
    Zr3    O75       1.04052      .   S
    Zr11   O76       0.63613      .   S
    Zr31   O76       0.63613      .   S
    Zr15   O77       0.63947      .   S
    Zr37   O77       0.63947      .   S
    Zr35   O78       1.09976      .   S
    Zr3    O78       1.09976      .   S
    Zr35   O79       0.63489      .   S
    Zr13   O79       0.63489      .   S
    Zr31   O80       1.09026      .   S
    Zr3    O80       1.09026      .   S
    Zr3    O81       1.03412      .   S
    Zr33   O81       1.03412      .   S
    Zr13   O82       0.64148      .   S
    Zr33   O82       0.64148      .   S
    Zr41   O83       0.63913      .   S
    Zr17   O83       0.63913      .   S
    Zr41   O84       1.05079      .   S
    Zr5    O84       1.05079      .   S
    Zr17   O85       0.63733      .   S
    Zr43   O85       0.63733      .   S
    Zr5    O86       1.06722      .   S
    Zr55   O86       1.06722      .   S
    Zr5    O87       1.07589      .   S
    Zr43   O87       1.07589      .   S
    Zr5    O88       1.05880      .   S
    Zr53   O88       1.05880      .   S
    Zr55   O89       0.63826      .   S
    Zr23   O89       0.63826      .   S
    Zr44   O90       0.63855      .   S
    Zr18   O90       0.63855      .   S
    Zr44   O91       1.05812      .   S
    Zr6    O91       1.05812      .   S
    Zr18   O92       0.63808      .   S
    Zr46   O92       0.63808      .   S
    Zr23   O93       0.63836      .   S
    Zr53   O93       0.63836      .   S
    Zr50   O94       1.08387      .   S
    Zr6    O94       1.08387      .   S
    Zr50   O95       0.63671      .   S
    Zr20   O95       0.63671      .   S
    Zr46   O96       1.06821      .   S
    Zr6    O96       1.06821      .   S
    Zr6    O97       1.04683      .   S
    Zr48   O97       1.04683      .   S
    Zr20   O98       0.63993      .   S
    Zr48   O98       0.63993      .   S
    Zr24   O99       0.64056      .   S
    Zr8    O99       0.64056      .   S
    Zr24   O100      1.04174      .   S
    Zr0    O100      1.04174      .   S
    Zr8    O101      0.63582      .   S
    Zr26   O101      0.63582      .   S
    Zr0    O102      1.08832      .   S
    Zr38   O102      1.08832      .   S
    Zr0    O103      1.09011      .   S
    Zr26   O103      1.09011      .   S
    Zr0    O104      1.04054      .   S
    Zr36   O104      1.04054      .   S
    Zr38   O105      0.63619      .   S
    Zr14   O105      0.63619      .   S
    Zr28   O106      0.63943      .   S
    Zr10   O106      0.63943      .   S
    Zr28   O107      1.04918      .   S
    Zr2    O107      1.04918      .   S
    Zr10   O108      0.63716      .   S
    Zr30   O108      0.63716      .   S
    Zr14   O109      0.64035      .   S
    Zr36   O109      0.64035      .   S
    Zr34   O110      1.09228      .   S
    Zr2    O110      1.09228      .   S
    Zr34   O111      0.63591      .   S
    Zr12   O111      0.63591      .   S
    Zr30   O112      1.08135      .   S
    Zr2    O112      1.08135      .   S
    Zr2    O113      1.04072      .   S
    Zr32   O113      1.04072      .   S
    Zr12   O114      0.64070      .   S
    Zr32   O114      0.64070      .   S
    Zr40   O115      0.63904      .   S
    Zr16   O115      0.63904      .   S
    Zr40   O116      1.05413      .   S
    Zr4    O116      1.05413      .   S
    Zr16   O117      0.63775      .   S
    Zr42   O117      0.63775      .   S
    Zr4    O118      1.09037      .   S
    Zr54   O118      1.09037      .   S
    Zr4    O119      1.07073      .   S
    Zr42   O119      1.07073      .   S
    N120   O121      1.07066      .   S
    Zr9    O121      1.81793  1_545   S
    N120   O122      1.19923      .   S
    Zr7    O122      2.22225      .   S
    N120   O123      1.07044      .   S
    Zr11   O123      1.81747      .   S
    N124   O125      1.07073      .   S
    Zr12   O125      1.81776      .   S
    N124   O126      1.07851      .   S
    Zr14   O126      1.82500      .   S
    N124   O127      1.22823      .   S
    Zr4    O127      2.25074  1_455   S
    N128   O129      1.06759      .   S
    Zr22   O129      1.81460      .   S
    N128   O130      1.06713      .   S
    Zr21   O130      1.81400  1_565   S
    N128   O131      1.17847      .   S
    Zr1    O131      2.19965  1_655   S
    N132   O133      1.21829  1_655   S
    Zr5    O133      2.23997      .   S
    N132   O134      1.07336      .   S
    Zr13   O134      1.82075      .   S
    N132   O135      1.07375      .   S
    Zr15   O135      1.82148      .   S
    N136   O137      1.06440      .   S
    Zr23   O137      1.81107      .   S
    N136   O138      1.06689      .   S
    Zr20   O138      1.81367  1_565   S
    N136   O139      1.16667  1_455   S
    Zr0    O139      2.18675      .   S
    N140   O141      1.20035      .   S
    Zr6    O141      2.22546      .   S
    N140   O142      1.07065      .   S
    Zr10   O142      1.81793      .   S
    N140   O143      1.07030      .   S
    Zr8    O143      1.81711  1_545   S
    N144   O145      1.19769      .   S
    Zr3    O145      2.21797      .   S
    N144   O146      1.07004      .   S
    Zr18   O146      1.81678      .   S
    N144   O147      1.07041      .   S
    Zr17   O147      1.81740      .   S
    N149   O150      0.90987      .   S
    Zr16   O150      1.65625      .   S
    N149   O151      1.43143      .   S
    Zr47   O151      2.27762  1_554   S
    N149   O152      1.26998      .   S
    Zr19   O152      1.81582  1_554   S
    N149   O153      1.32742      .   S
    Zr2    O153      2.34821      .   S
