# CIF file generated by openbabel 2.4.90, see http://openbabel.sf.net
data_I
_chemical_name_common ''
_cell_length_a 10.3935
_cell_length_b 17.884
_cell_length_c 21.009
_cell_angle_alpha 90.126
_cell_angle_beta 90.167
_cell_angle_gamma 90.149
_space_group_name_H-M_alt 'P 1'
_space_group_name_Hall 'P 1'
loop_
    _symmetry_equiv_pos_as_xyz
    x,y,z
loop_
    _atom_site_label
    _atom_site_type_symbol
    _atom_site_fract_x
    _atom_site_fract_y
    _atom_site_fract_z
    _atom_site_occupancy
    N0      N    0.58061   0.87255   0.16933   1.000
    N1      N    0.91552   0.37315   0.83135   1.000
    N2      N    0.08068   0.12148   0.08168   1.000
    N3      N    0.91892   0.37321   0.33146   1.000
    N4      N    0.07554   0.12382   0.58387   1.000
    N5      N    0.57366   0.87312   0.66785   1.000
    N6      N    0.41708   0.62317   0.41942   1.000
    N7      N    0.54187   0.73562   0.00000   1.000
    N8      N    0.40421   0.60788   0.92734   1.000
    Zr9     Zr   0.68561   0.62413   0.28517   1.000
    O10     O    0.77481   0.52360   0.30428   1.000
    O11     O    0.64230   0.72382   0.24107   1.000
    O12     O    0.59233   0.62393   0.33232   1.000
    Zr13    Zr   0.31150   0.87043   0.03973   1.000
    O14     O    0.35256   0.76740   0.00170   1.000
    O15     O    0.22274   0.97088   0.05694   1.000
    O16     O    0.40464   0.87089   0.08460   1.000
    O17     O    0.34364   0.76709   0.00691   1.000
    Zr18    Zr   0.18783   0.37079   0.96748   1.000
    O19     O    0.27319   0.46772   0.94936   1.000
    O20     O    0.09303   0.37178   0.92035   1.000
    O21     O    0.14342   0.27084   0.01110   1.000
    Zr22    Zr   0.81528   0.12389   0.21444   1.000
    O23     O    0.85845   0.22387   0.25897   1.000
    O24     O    0.72542   0.02324   0.19548   1.000
    O25     O    0.90768   0.12322   0.16772   1.000
    Zr26    Zr   0.68323   0.62426   0.78312   1.000
    O27     O    0.58795   0.62015   0.83277   1.000
    O28     O    0.77246   0.52372   0.80307   1.000
    O29     O    0.63779   0.72400   0.73908   1.000
    Zr30    Zr   0.80775   0.12417   0.71417   1.000
    O31     O    0.71806   0.02365   0.69485   1.000
    O32     O    0.85215   0.22396   0.75873   1.000
    O33     O    0.90094   0.12410   0.66808   1.000
    Zr34    Zr   0.30573   0.87306   0.53394   1.000
    O35     O    0.39847   0.87284   0.58083   1.000
    O36     O    0.35169   0.77306   0.48990   1.000
    O37     O    0.21732   0.97342   0.55497   1.000
    Zr38    Zr   0.18472   0.37246   0.46956   1.000
    O39     O    0.13927   0.27301   0.51361   1.000
    O40     O    0.09250   0.37250   0.42144   1.000
    O41     O    0.27426   0.47266   0.44868   1.000
loop_
    _geom_bond_atom_site_label_1
    _geom_bond_atom_site_label_2
    _geom_bond_distance
    _geom_bond_site_symmetry_2
    _ccdc_geom_bond_type
    Zr9    O10       2.06467      .   S
    N3     O10       3.13458      .   S
    Zr9    O11       2.06118      .   S
    N0     O11       3.12726      .   S
    Zr9    O12       1.38807      .   S
    N6     O12       2.58564      .   S
    Zr13   O14       2.05309      .   S
    N8     O14       3.29551  1_556   S
    Zr13   O15       2.05348      .   S
    N2     O15       3.11822  1_545   S
    Zr13   O16       1.34930      .   S
    N0     O16       2.54849      .   S
    Zr13   O17       2.00040      .   S
    N8     O17       3.36037  1_556   S
    Zr18   O19       1.98357      .   S
    N8     O19       2.88829      .   S
    Zr18   O20       1.39492      .   S
    N1     O20       2.62311  1_655   S
    Zr18   O21       2.06234  1_556   S
    N2     O21       3.12610      .   S
    Zr22   O23       2.06392      .   S
    N3     O23       3.13295      .   S
    Zr22   O24       2.06315      .   S
    N0     O24       3.13006  1_565   S
    Zr22   O25       1.37524      .   S
    N2     O25       2.55359  1_455   S
    Zr26   O27       1.44232      .   S
    N8     O27       2.76847      .   S
    Zr26   O28       2.06857      .   S
    N1     O28       3.13642      .   S
    Zr26   O29       2.06639      .   S
    N5     O29       3.13312      .   S
    Zr30   O31       2.06188      .   S
    N5     O31       3.12876  1_565   S
    Zr30   O32       2.06402      .   S
    N1     O32       3.13810      .   S
    Zr30   O33       1.37156      .   S
    N4     O33       2.53800  1_455   S
    Zr34   O35       1.37623      .   S
    N5     O35       2.57643      .   S
    Zr34   O36       2.06938      .   S
    N6     O36       3.13665      .   S
    Zr34   O37       2.06605      .   S
    N4     O37       3.12944  1_545   S
    Zr38   O39       2.06107      .   S
    N4     O39       3.12267      .   S
    Zr38   O40       1.39115      .   S
    N3     O40       2.60940  1_655   S
    Zr38   O41       2.06565      .   S
    N6     O41       3.13342      .   S
