# CIF file generated by openbabel 2.4.90, see http://openbabel.sf.net
data_I
_chemical_name_common ''
_cell_length_a 12.889
_cell_length_b 14.509
_cell_length_c 14.526
_cell_angle_alpha 78.448
_cell_angle_beta 63.448
_cell_angle_gamma 63.512
_space_group_name_H-M_alt 'P 1'
_space_group_name_Hall 'P 1'
loop_
    _symmetry_equiv_pos_as_xyz
    x,y,z
loop_
    _atom_site_label
    _atom_site_type_symbol
    _atom_site_fract_x
    _atom_site_fract_y
    _atom_site_fract_z
    _atom_site_occupancy
    H0      H    0.58029   0.72575   0.30262   1.000
    H1      H    0.74427   0.77577   0.15985   1.000
    H2      H    0.99036   0.45494   0.08940   1.000
    H3      H    0.82280   0.40625   0.22862   1.000
    H4      H    0.04997   0.52491   0.92935   1.000
    H5      H    0.20763   0.58207   0.78686   1.000
    H6      H    0.22492   0.74059   0.80499   1.000
    H7      H    0.93448   0.78134   0.11240   1.000
    H8      H    0.61311   0.27319   0.69403   1.000
    H9      H    0.68289   0.22455   0.83707   1.000
    H10     H    0.53525   0.54599   0.90554   1.000
    H11     H    0.45963   0.59329   0.76610   1.000
    H12     H    0.50287   0.47726   0.06618   1.000
    H13     H    0.57308   0.42133   0.20935   1.000
    H14     H    0.76702   0.26280   0.19295   1.000
    H15     H    0.83003   0.21979   0.88525   1.000
    H16     H    0.13401   0.19489   0.22719   1.000
    H17     H    0.15508   0.33759   0.27654   1.000
    H18     H    0.32946   0.40839   0.95560   1.000
    H19     H    0.30137   0.26920   0.90765   1.000
    H20     H    0.22647   0.56883   0.02569   1.000
    H21     H    0.23991   0.71205   0.08227   1.000
    H22     H    0.27699   0.69406   0.23978   1.000
    H23     H    0.29892   0.38536   0.28079   1.000
    H24     H    0.55601   0.80430   0.77459   1.000
    H25     H    0.76982   0.66132   0.72500   1.000
    H26     H    0.69343   0.59194   0.04596   1.000
    H27     H    0.47729   0.73118   0.09417   1.000
    H28     H    0.82278   0.43174   0.97724   1.000
    H29     H    0.03744   0.28904   0.92076   1.000
    H30     H    0.21403   0.30618   0.76162   1.000
    H31     H    0.96578   0.61355   0.71905   1.000
    C32     C    0.69082   0.56297   0.27489   1.000
    C33     C    0.67041   0.66708   0.25531   1.000
    C34     C    0.76317   0.69454   0.17599   1.000
    C35     C    0.87997   0.61920   0.11446   1.000
    C36     C    0.89986   0.51491   0.13466   1.000
    C37     C    0.80636   0.48709   0.21330   1.000
    C38     C    0.97719   0.65057   0.03044   1.000
    C39     C    0.05806   0.59374   0.93850   1.000
    C40     C    0.14649   0.62575   0.85811   1.000
    C41     C    0.15658   0.71477   0.86760   1.000
    C42     C    0.07949   0.77066   0.95987   1.000
    C43     C    0.99072   0.73839   0.04050   1.000
    C44     C    0.53190   0.43623   0.72078   1.000
    C45     C    0.59637   0.33233   0.74095   1.000
    C46     C    0.63644   0.30563   0.82040   1.000
    C47     C    0.61518   0.38152   0.88161   1.000
    C48     C    0.55076   0.48559   0.86070   1.000
    C49     C    0.50900   0.51263   0.78184   1.000
    C50     C    0.65860   0.35100   0.96602   1.000
    C51     C    0.58924   0.40848   0.05754   1.000
    C52     C    0.62797   0.37713   0.13842   1.000
    C53     C    0.73664   0.28806   0.12988   1.000
    C54     C    0.80917   0.23153   0.03800   1.000
    C55     C    0.77021   0.26325   0.95683   1.000
    C56     C    0.21626   0.22279   0.06441   1.000
    C57     C    0.17658   0.24222   0.16835   1.000
    C58     C    0.18990   0.32152   0.19543   1.000
    C59     C    0.24466   0.38320   0.11988   1.000
    C60     C    0.28454   0.36307   0.01577   1.000
    C61     C    0.26992   0.28438   0.98834   1.000
    C62     C    0.25738   0.46745   0.15076   1.000
    C63     C    0.24457   0.55966   0.09407   1.000
    C64     C    0.25159   0.64052   0.12573   1.000
    C65     C    0.27206   0.63109   0.21422   1.000
    C66     C    0.28911   0.53853   0.26989   1.000
    C67     C    0.28192   0.45746   0.23800   1.000
    C68     C    0.50289   0.77707   0.93739   1.000
    C69     C    0.58704   0.75717   0.83340   1.000
    C70     C    0.70717   0.67772   0.80621   1.000
    C71     C    0.74814   0.61642   0.88171   1.000
    C72     C    0.66328   0.63695   0.98587   1.000
    C73     C    0.54204   0.71572   0.01342   1.000
    C74     C    0.87667   0.53228   0.85070   1.000
    C75     C    0.90008   0.44065   0.90817   1.000
    C76     C    0.02041   0.36004   0.87653   1.000
    C77     C    0.12000   0.36899   0.78716   1.000
    C78     C    0.09941   0.46095   0.73050   1.000
    C79     C    0.97854   0.54186   0.76250   1.000
loop_
    _geom_bond_atom_site_label_1
    _geom_bond_atom_site_label_2
    _geom_bond_distance
    _geom_bond_site_symmetry_2
    _ccdc_geom_bond_type
    C73    H27       1.08899      .   S
    C73    C68       1.40379  1_554   S
    C73    C72       1.39256  1_554   S
    C60    C59       1.40874      .   S
    C60    H18       1.09017  1_554   S
    C60    C61       1.39255  1_554   S
    H20    C63       1.08867      .   S
    C38    C43       1.40390      .   S
    C38    C35       1.47853      .   S
    C38    C39       1.40702  1_654   S
    C54    C53       1.40245      .   S
    C54    C55       1.40001  1_554   S
    C43    H7        1.08876      .   S
    C43    C42       1.40011  1_654   S
    H26    C72       1.08993  1_554   S
    C51    H12       1.08874      .   S
    C51    C52       1.39430      .   S
    C51    C50       1.40658  1_554   S
    C56    C57       1.40433      .   S
    C56    C61       1.40373  1_554   S
    H21    C64       1.08701      .   S
    H2     C36       1.09000      .   S
    C63    C64       1.39426      .   S
    C63    C62       1.40658      .   S
    C35    C36       1.40880      .   S
    C35    C34       1.40735      .   S
    C59    C62       1.47872      .   S
    C59    C58       1.40742      .   S
    C64    C65       1.39331      .   S
    C53    C52       1.39341      .   S
    C53    H14       1.08867      .   S
    C36    C37       1.39234      .   S
    C52    H13       1.08698      .   S
    C62    C67       1.40386      .   S
    H1     C34       1.08983      .   S
    C57    C58       1.38782      .   S
    C57    H16       1.08854      .   S
    C34    C33       1.38749      .   S
    C58    H17       1.08988      .   S
    C37    H3        1.08902      .   S
    C37    C32       1.40395      .   S
    C65    H22       1.08867      .   S
    C65    C66       1.40236      .   S
    C67    C66       1.40014      .   S
    C67    H23       1.08877      .   S
    C33    C32       1.40439      .   S
    C33    H0        1.08843      .   S
    H8     C45       1.08853      .   S
    H31    C79       1.08846      .   S
    C44    C45       1.40438      .   S
    C44    C49       1.40369      .   S
    H25    C70       1.09072      .   S
    C78    C79       1.40036  1_455   S
    C78    C77       1.40268      .   S
    C45    C46       1.38713      .   S
    H30    C77       1.08874      .   S
    C79    C74       1.40431      .   S
    H11    C49       1.08886      .   S
    H24    C69       1.08851      .   S
    C49    C48       1.39235      .   S
    H5     C40       1.08709      .   S
    C77    C76       1.39330      .   S
    H6     C41       1.08866      .   S
    C70    C69       1.38769      .   S
    C70    C71       1.40743      .   S
    C46    H9        1.09011      .   S
    C46    C47       1.40821      .   S
    C69    C68       1.40433      .   S
    C74    C71       1.47880      .   S
    C74    C75       1.40651      .   S
    C40    C41       1.39335      .   S
    C40    C39       1.39403      .   S
    C48    C47       1.40890      .   S
    C48    H10       1.09010      .   S
    C41    C42       1.40259      .   S
    C76    C75       1.39447  1_455   S
    C76    H29       1.08699      .   S
    C47    C50       1.47907      .   S
    C71    C72       1.40878      .   S
    H15    C55       1.08870      .   S
    H19    C61       1.08884      .   S
    C75    H28       1.08866      .   S
    H4     C39       1.08832      .   S
    C55    C50       1.40389      .   S
