# CIF file generated by openbabel 2.4.90, see http://openbabel.sf.net
data_I
_chemical_name_common ''
_cell_length_a 12.889
_cell_length_b 14.509
_cell_length_c 14.526
_cell_angle_alpha 78.448
_cell_angle_beta 63.448
_cell_angle_gamma 63.512
_space_group_name_H-M_alt 'P 1'
_space_group_name_Hall 'P 1'
loop_
    _symmetry_equiv_pos_as_xyz
    x,y,z
loop_
    _atom_site_label
    _atom_site_type_symbol
    _atom_site_fract_x
    _atom_site_fract_y
    _atom_site_fract_z
    _atom_site_occupancy
    C0      C    0.58862   0.53643   0.35994   1.000
    C1      C    0.09776   0.86045   0.97433   1.000
    C2      C    0.48834   0.46232   0.63598   1.000
    C3      C    0.93178   0.14159   0.02443   1.000
    C4      C    0.19897   0.13809   0.03800   1.000
    C5      C    0.32268   0.52437   0.35911   1.000
    C6      C    0.37426   0.86224   0.96365   1.000
    C7      C    0.20793   0.47489   0.64022   1.000
