# CIF file generated by openbabel 2.4.90, see http://openbabel.sf.net
data_I
_chemical_name_common ''
_cell_length_a 12.889
_cell_length_b 14.509
_cell_length_c 14.526
_cell_angle_alpha 78.448
_cell_angle_beta 63.448
_cell_angle_gamma 63.512
_space_group_name_H-M_alt 'P 1'
_space_group_name_Hall 'P 1'
loop_
    _symmetry_equiv_pos_as_xyz
    x,y,z
loop_
    _atom_site_label
    _atom_site_type_symbol
    _atom_site_fract_x
    _atom_site_fract_y
    _atom_site_fract_z
    _atom_site_occupancy
    Zr0     Zr   0.45779   0.40771   0.47864   1.000
    Zr1     Zr   0.34548   0.59131   0.51871   1.000
    Zr2     Zr   0.18673   0.02101   0.90840   1.000
    Zr3     Zr   0.11383   0.98035   0.09188   1.000
    Zr4     Zr   0.58862   0.53643   0.35994   1.000
    Zr5     Zr   0.09776   0.86045   0.97433   1.000
    Zr6     Zr   0.48834   0.46232   0.63598   1.000
    Zr7     Zr   0.93178   0.14159   0.02443   1.000
    Zr8     Zr   0.19897   0.13809   0.03800   1.000
    Zr9     Zr   0.32268   0.52437   0.35911   1.000
    Zr10    Zr   0.37426   0.86224   0.96365   1.000
    Zr11    Zr   0.20793   0.47489   0.64022   1.000
    Zr12    Zr   0.59549   0.44493   0.36406   1.000
    Zr13    Zr   0.49884   0.60955   0.42270   1.000
    Zr14    Zr   0.05680   0.88686   0.06752   1.000
    Zr15    Zr   0.15588   0.90225   0.89386   1.000
    Zr16    Zr   0.40734   0.55379   0.63196   1.000
    Zr17    Zr   0.53478   0.38912   0.57340   1.000
    Zr18    Zr   0.01197   0.11501   0.93145   1.000
    Zr19    Zr   0.94975   0.09983   0.10531   1.000
    Zr20    Zr   0.21032   0.13430   0.94642   1.000
    Zr21    Zr   0.17150   0.07532   0.11105   1.000
    Zr22    Zr   0.37606   0.43125   0.38559   1.000
    Zr23    Zr   0.29978   0.60515   0.40036   1.000
    Zr24    Zr   0.28900   0.86627   0.05490   1.000
    Zr25    Zr   0.35833   0.92530   0.89052   1.000
    Zr26    Zr   0.19412   0.56802   0.61330   1.000
    Zr27    Zr   0.30739   0.39412   0.59846   1.000
    O28     O    0.94077   0.12071   0.06487   1.000
    O29     O    0.97187   0.12830   0.97794   1.000
    O30     O    0.18523   0.10670   0.07453   1.000
    O31     O    0.20464   0.13619   0.99221   1.000
    O32     O    0.20142   0.92331   0.07339   1.000
    O33     O    0.33163   0.86426   0.00928   1.000
    O34     O    0.08532   0.93361   0.07970   1.000
    O35     O    0.07728   0.87366   0.02093   1.000
    O36     O    0.03179   0.04009   0.09860   1.000
    O37     O    0.14267   0.02784   0.10147   1.000
    O38     O    0.34937   0.47781   0.37235   1.000
    O39     O    0.31123   0.56476   0.37974   1.000
    O40     O    0.59206   0.49068   0.36200   1.000
    O41     O    0.54373   0.57299   0.39132   1.000
    O42     O    0.52664   0.42632   0.42135   1.000
    O43     O    0.41693   0.41948   0.43212   1.000
    O44     O    0.32263   0.59823   0.45954   1.000
    O45     O    0.42216   0.60043   0.47071   1.000
    O46     O    0.49628   0.39842   0.52602   1.000
    O47     O    0.38259   0.40092   0.53855   1.000
    O48     O    0.26980   0.57966   0.56601   1.000
    O49     O    0.37641   0.57255   0.57534   1.000
    O50     O    0.51156   0.42572   0.60469   1.000
    O51     O    0.25766   0.43450   0.61934   1.000
    O52     O    0.20102   0.52145   0.62676   1.000
    O53     O    0.44784   0.50805   0.63397   1.000
    O54     O    0.27253   0.97316   0.89946   1.000
    O55     O    0.36629   0.89377   0.92709   1.000
    O56     O    0.17131   0.96163   0.90113   1.000
    O57     O    0.12682   0.88135   0.93410   1.000
    O58     O    0.09935   0.06801   0.91993   1.000
    O59     O    0.19853   0.07766   0.92741   1.000
    O60     O    0.40164   0.49951   0.49868   1.000
    O61     O    0.15028   0.00068   0.00014   1.000
    N62     N    0.81411   0.56575   0.86960   1.000
    O63     O    0.98389   0.51684   0.77748   1.000
    O64     O    0.62634   0.69271   0.91006   1.000
    N65     N    0.93369   0.63156   0.06389   1.000
    O66     O    0.78671   0.59063   0.19065   1.000
    O67     O    0.01116   0.72356   0.01549   1.000
    N68     N    0.24703   0.43411   0.13202   1.000
    O69     O    0.27646   0.48278   0.22326   1.000
    O70     O    0.22732   0.30727   0.09161   1.000
    N71     N    0.62977   0.36958   0.93247   1.000
    O72     O    0.75012   0.27807   0.98184   1.000
    O73     O    0.56994   0.40943   0.80543   1.000
loop_
    _geom_bond_atom_site_label_1
    _geom_bond_atom_site_label_2
    _geom_bond_distance
    _geom_bond_site_symmetry_2
    _ccdc_geom_bond_type
    Zr7    O28       0.63915      .   S
    Zr19   O28       0.63915      .   S
    Zr7    O29       0.64152  1_554   S
    Zr18   O29       0.64152  1_455   S
    Zr8    O30       0.64137      .   S
    Zr21   O30       0.64137      .   S
    Zr8    O31       0.64074  1_554   S
    Zr20   O31       0.64074      .   S
    Zr24   O32       1.00798      .   S
    Zr3    O32       1.00798      .   S
    Zr24   O33       0.64021      .   S
    Zr10   O33       0.64021  1_556   S
    Zr14   O34       0.97725      .   S
    Zr3    O34       0.97725      .   S
    Zr14   O35       0.64154      .   S
    Zr5    O35       0.64154  1_556   S
    Zr3    O36       1.00150  1_565   S
    Zr19   O36       1.00150  1_655   S
    Zr3    O37       0.97218  1_565   S
    Zr21   O37       0.97218      .   S
    Zr9    O38       0.64153      .   S
    Zr22   O38       0.64153      .   S
    Zr9    O39       0.63918      .   S
    Zr23   O39       0.63918      .   S
    Zr4    O40       0.64067      .   S
    Zr12   O40       0.64067      .   S
    Zr4    O41       0.64123      .   S
    Zr13   O41       0.64123      .   S
    Zr12   O42       1.00820      .   S
    Zr0    O42       1.00820      .   S
    Zr22   O43       0.97731      .   S
    Zr0    O43       0.97731      .   S
    Zr23   O44       1.00056      .   S
    Zr1    O44       1.00056      .   S
    Zr13   O45       0.97162      .   S
    Zr1    O45       0.97162      .   S
    Zr0    O46       0.97282      .   S
    Zr17   O46       0.97282      .   S
    Zr0    O47       1.00166      .   S
    Zr27   O47       1.00166      .   S
    Zr1    O48       0.97647      .   S
    Zr26   O48       0.97647      .   S
    Zr1    O49       1.00810      .   S
    Zr16   O49       1.00810      .   S
    Zr17   O50       0.64142      .   S
    Zr6    O50       0.64142      .   S
    Zr27   O51       0.63915      .   S
    Zr11   O51       0.63915      .   S
    Zr26   O52       0.64156      .   S
    Zr11   O52       0.64156      .   S
    Zr16   O53       0.64075      .   S
    Zr6    O53       0.64075      .   S
    Zr25   O54       0.97196      .   S
    Zr2    O54       0.97196  1_545   S
    Zr25   O55       0.64144      .   S
    Zr10   O55       0.64144      .   S
    Zr15   O56       1.00052      .   S
    Zr2    O56       1.00052  1_545   S
    Zr15   O57       0.63908      .   S
    Zr5    O57       0.63908      .   S
    Zr2    O58       0.97652      .   S
    Zr18   O58       0.97652      .   S
    Zr2    O59       1.00728      .   S
    Zr20   O59       1.00728      .   S
    Zr0    O60       1.22047      .   S
    Zr1    O60       1.22047      .   S
    Zr2    O61       1.22068  1_556   S
    Zr3    O61       1.22068  1_565   S
    N62    O63       1.86010      .   S
    Zr11   O63       2.54069  1_455   S
    N62    O64       2.18652      .   S
    Zr10   O64       2.93084      .   S
    N65    O66       2.18618      .   S
    Zr4    O66       2.93044      .   S
    N65    O67       1.85964  1_655   S
    Zr5    O67       2.54041  1_556   S
    N68    O69       1.86073      .   S
    Zr9    O69       2.54196      .   S
    N68    O70       2.18601      .   S
    Zr8    O70       2.93025      .   S
    N71    O72       1.85998      .   S
    Zr7    O72       2.54059  1_554   S
    N71    O73       2.18673      .   S
    Zr6    O73       2.93113      .   S
