# CIF file generated by openbabel 2.4.90, see http://openbabel.sf.net
data_I
_chemical_name_common ''
_cell_length_a 12.889
_cell_length_b 14.509
_cell_length_c 14.526
_cell_angle_alpha 78.448
_cell_angle_beta 63.448
_cell_angle_gamma 63.512
_space_group_name_H-M_alt 'P 1'
_space_group_name_Hall 'P 1'
loop_
    _symmetry_equiv_pos_as_xyz
    x,y,z
loop_
    _atom_site_label
    _atom_site_type_symbol
    _atom_site_fract_x
    _atom_site_fract_y
    _atom_site_fract_z
    _atom_site_occupancy
    C0      C    0.45779   0.40771   0.47864   1.000
    C1      C    0.34548   0.59131   0.51871   1.000
    C2      C    0.18673   0.02101   0.90840   1.000
    C3      C    0.11383   0.98035   0.09188   1.000
    C4      C    0.58029   0.72575   0.30262   1.000
    C5      C    0.74427   0.77577   0.15985   1.000
    C6      C    0.99036   0.45494   0.08940   1.000
    C7      C    0.82280   0.40625   0.22862   1.000
    C8      C    0.04997   0.52491   0.92935   1.000
    C9      C    0.20763   0.58207   0.78686   1.000
    C10     C    0.22492   0.74059   0.80499   1.000
    C11     C    0.93448   0.78134   0.11240   1.000
    C12     C    0.61311   0.27319   0.69403   1.000
    C13     C    0.68289   0.22455   0.83707   1.000
    C14     C    0.53525   0.54599   0.90554   1.000
    C15     C    0.45963   0.59329   0.76610   1.000
    C16     C    0.50287   0.47726   0.06618   1.000
    C17     C    0.57308   0.42133   0.20935   1.000
    C18     C    0.76702   0.26280   0.19295   1.000
    C19     C    0.83003   0.21979   0.88525   1.000
    C20     C    0.13401   0.19489   0.22719   1.000
    C21     C    0.15508   0.33759   0.27654   1.000
    C22     C    0.32946   0.40839   0.95560   1.000
    C23     C    0.30137   0.26920   0.90765   1.000
    C24     C    0.22647   0.56883   0.02569   1.000
    C25     C    0.23991   0.71205   0.08227   1.000
    C26     C    0.27699   0.69406   0.23978   1.000
    C27     C    0.29892   0.38536   0.28079   1.000
    C28     C    0.55601   0.80430   0.77459   1.000
    C29     C    0.76982   0.66132   0.72500   1.000
    C30     C    0.69343   0.59194   0.04596   1.000
    C31     C    0.47729   0.73118   0.09417   1.000
    C32     C    0.82278   0.43174   0.97724   1.000
    C33     C    0.03744   0.28904   0.92076   1.000
    C34     C    0.21403   0.30618   0.76162   1.000
    C35     C    0.96578   0.61355   0.71905   1.000
    C36     C    0.58862   0.53643   0.35994   1.000
    C37     C    0.69082   0.56297   0.27489   1.000
    C38     C    0.67041   0.66708   0.25531   1.000
    C39     C    0.76317   0.69454   0.17599   1.000
    C40     C    0.87997   0.61920   0.11446   1.000
    C41     C    0.89986   0.51491   0.13466   1.000
    C42     C    0.80636   0.48709   0.21330   1.000
    C43     C    0.97719   0.65057   0.03044   1.000
    C44     C    0.05806   0.59374   0.93850   1.000
    C45     C    0.14649   0.62575   0.85811   1.000
    C46     C    0.15658   0.71477   0.86760   1.000
    C47     C    0.07949   0.77066   0.95987   1.000
    C48     C    0.99072   0.73839   0.04050   1.000
    C49     C    0.09776   0.86045   0.97433   1.000
    C50     C    0.48834   0.46232   0.63598   1.000
    C51     C    0.53190   0.43623   0.72078   1.000
    C52     C    0.59637   0.33233   0.74095   1.000
    C53     C    0.63644   0.30563   0.82040   1.000
    C54     C    0.61518   0.38152   0.88161   1.000
    C55     C    0.55076   0.48559   0.86070   1.000
    C56     C    0.50900   0.51263   0.78184   1.000
    C57     C    0.65860   0.35100   0.96602   1.000
    C58     C    0.58924   0.40848   0.05754   1.000
    C59     C    0.62797   0.37713   0.13842   1.000
    C60     C    0.73664   0.28806   0.12988   1.000
    C61     C    0.80917   0.23153   0.03800   1.000
    C62     C    0.77021   0.26325   0.95683   1.000
    C63     C    0.93178   0.14159   0.02443   1.000
    C64     C    0.19897   0.13809   0.03800   1.000
    C65     C    0.21626   0.22279   0.06441   1.000
    C66     C    0.17658   0.24222   0.16835   1.000
    C67     C    0.18990   0.32152   0.19543   1.000
    C68     C    0.24466   0.38320   0.11988   1.000
    C69     C    0.28454   0.36307   0.01577   1.000
    C70     C    0.26992   0.28438   0.98834   1.000
    C71     C    0.25738   0.46745   0.15076   1.000
    C72     C    0.24457   0.55966   0.09407   1.000
    C73     C    0.25159   0.64052   0.12573   1.000
    C74     C    0.27206   0.63109   0.21422   1.000
    C75     C    0.28911   0.53853   0.26989   1.000
    C76     C    0.28192   0.45746   0.23800   1.000
    C77     C    0.32268   0.52437   0.35911   1.000
    C78     C    0.37426   0.86224   0.96365   1.000
    C79     C    0.50289   0.77707   0.93739   1.000
    C80     C    0.58704   0.75717   0.83340   1.000
    C81     C    0.70717   0.67772   0.80621   1.000
    C82     C    0.74814   0.61642   0.88171   1.000
    C83     C    0.66328   0.63695   0.98587   1.000
    C84     C    0.54204   0.71572   0.01342   1.000
    C85     C    0.87667   0.53228   0.85070   1.000
    C86     C    0.90008   0.44065   0.90817   1.000
    C87     C    0.02041   0.36004   0.87653   1.000
    C88     C    0.12000   0.36899   0.78716   1.000
    C89     C    0.09941   0.46095   0.73050   1.000
    C90     C    0.97854   0.54186   0.76250   1.000
    C91     C    0.20793   0.47489   0.64022   1.000
    C92     C    0.59549   0.44493   0.36406   1.000
    C93     C    0.49884   0.60955   0.42270   1.000
    C94     C    0.05680   0.88686   0.06752   1.000
    C95     C    0.15588   0.90225   0.89386   1.000
    C96     C    0.40734   0.55379   0.63196   1.000
    C97     C    0.53478   0.38912   0.57340   1.000
    C98     C    0.01197   0.11501   0.93145   1.000
    C99     C    0.94975   0.09983   0.10531   1.000
    C100    C    0.21032   0.13430   0.94642   1.000
    C101    C    0.17150   0.07532   0.11105   1.000
    C102    C    0.37606   0.43125   0.38559   1.000
    C103    C    0.29978   0.60515   0.40036   1.000
    C104    C    0.28900   0.86627   0.05490   1.000
    C105    C    0.35833   0.92530   0.89052   1.000
    C106    C    0.19412   0.56802   0.61330   1.000
    C107    C    0.30739   0.39412   0.59846   1.000
    O108    O    0.50966   0.72345   0.05380   1.000
    O109    O    0.52246   0.74640   0.97541   1.000
    O110    O    0.60266   0.67633   0.99965   1.000
    O111    O    0.26460   0.37313   0.06783   1.000
    O112    O    0.30700   0.38573   0.98569   1.000
    O113    O    0.27723   0.32373   0.00206   1.000
    O114    O    0.87048   0.18656   0.03122   1.000
    O115    O    0.94077   0.12071   0.06487   1.000
    O116    O    0.97187   0.12830   0.97794   1.000
    O117    O    0.23552   0.56424   0.05988   1.000
    O118    O    0.98395   0.69448   0.03547   1.000
    O119    O    0.92858   0.63488   0.07245   1.000
    O120    O    0.01763   0.62216   0.98447   1.000
    O121    O    0.20761   0.18044   0.05121   1.000
    O122    O    0.18523   0.10670   0.07453   1.000
    O123    O    0.20464   0.13619   0.99221   1.000
    O124    O    0.77291   0.25980   0.08394   1.000
    O125    O    0.78969   0.24739   0.99742   1.000
    O126    O    0.96260   0.75986   0.07645   1.000
    O127    O    0.03510   0.75453   0.00019   1.000
    O128    O    0.67836   0.61445   0.01592   1.000
    O129    O    0.20142   0.92331   0.07339   1.000
    O130    O    0.33163   0.86426   0.00928   1.000
    O131    O    0.54606   0.44287   0.06186   1.000
    O132    O    0.60861   0.39280   0.09798   1.000
    O133    O    0.62392   0.37974   0.01178   1.000
    O134    O    0.19642   0.23250   0.11638   1.000
    O135    O    0.24309   0.25358   0.02638   1.000
    O136    O    0.08532   0.93361   0.07970   1.000
    O137    O    0.07728   0.87366   0.02093   1.000
    O138    O    0.24575   0.67628   0.10400   1.000
    O139    O    0.94511   0.48492   0.11203   1.000
    O140    O    0.03179   0.04009   0.09860   1.000
    O141    O    0.14267   0.02784   0.10147   1.000
    O142    O    0.24808   0.60009   0.10990   1.000
    O143    O    0.25098   0.51355   0.12242   1.000
    O144    O    0.88991   0.56705   0.12456   1.000
    O145    O    0.82157   0.65687   0.14523   1.000
    O146    O    0.25102   0.42532   0.13532   1.000
    O147    O    0.21728   0.35236   0.15766   1.000
    O148    O    0.26182   0.63580   0.16998   1.000
    O149    O    0.68231   0.33260   0.13415   1.000
    O150    O    0.75183   0.27543   0.16142   1.000
    O151    O    0.85311   0.50100   0.17398   1.000
    O152    O    0.60053   0.39923   0.17389   1.000
    O153    O    0.26965   0.46245   0.19438   1.000
    O154    O    0.75372   0.73516   0.16792   1.000
    O155    O    0.18324   0.28187   0.18189   1.000
    O156    O    0.15530   0.21855   0.19777   1.000
    O157    O    0.71679   0.68081   0.21565   1.000
    O158    O    0.17249   0.32955   0.23599   1.000
    O159    O    0.81458   0.44667   0.22096   1.000
    O160    O    0.74859   0.52503   0.24410   1.000
    O161    O    0.27453   0.66258   0.22700   1.000
    O162    O    0.28058   0.58481   0.24206   1.000
    O163    O    0.28552   0.49799   0.25395   1.000
    O164    O    0.29042   0.42141   0.25939   1.000
    O165    O    0.68061   0.61502   0.26510   1.000
    O166    O    0.62535   0.69641   0.27897   1.000
    O167    O    0.30589   0.53145   0.31450   1.000
    O168    O    0.63972   0.54970   0.31742   1.000
    O169    O    0.34937   0.47781   0.37235   1.000
    O170    O    0.31123   0.56476   0.37974   1.000
    O171    O    0.59206   0.49068   0.36200   1.000
    O172    O    0.54373   0.57299   0.39132   1.000
    O173    O    0.52664   0.42632   0.42135   1.000
    O174    O    0.41693   0.41948   0.43212   1.000
    O175    O    0.32263   0.59823   0.45954   1.000
    O176    O    0.42216   0.60043   0.47071   1.000
    O177    O    0.49628   0.39842   0.52602   1.000
    O178    O    0.38259   0.40092   0.53855   1.000
    O179    O    0.26980   0.57966   0.56601   1.000
    O180    O    0.37641   0.57255   0.57534   1.000
    O181    O    0.51156   0.42572   0.60469   1.000
    O182    O    0.25766   0.43450   0.61934   1.000
    O183    O    0.20102   0.52145   0.62676   1.000
    O184    O    0.44784   0.50805   0.63397   1.000
    O185    O    0.51012   0.44927   0.67838   1.000
    O186    O    0.15367   0.46792   0.68536   1.000
    O187    O    0.60474   0.30276   0.71749   1.000
    O188    O    0.97216   0.57770   0.74078   1.000
    O189    O    0.56413   0.38428   0.73087   1.000
    O190    O    0.52045   0.47443   0.75131   1.000
    O191    O    0.73849   0.66952   0.76561   1.000
    O192    O    0.03897   0.50140   0.74650   1.000
    O193    O    0.10971   0.41497   0.75883   1.000
    O194    O    0.61641   0.31898   0.78068   1.000
    O195    O    0.16702   0.33759   0.77439   1.000
    O196    O    0.92761   0.53707   0.80660   1.000
    O197    O    0.48431   0.55296   0.77397   1.000
    O198    O    0.57152   0.78074   0.80400   1.000
    O199    O    0.52988   0.49911   0.82127   1.000
    O200    O    0.17706   0.60391   0.82249   1.000
    O201    O    0.07020   0.36452   0.83185   1.000
    O202    O    0.19075   0.72768   0.83630   1.000
    O203    O    0.64710   0.71745   0.81981   1.000
    O204    O    0.72765   0.64707   0.84396   1.000
    O205    O    0.65966   0.26509   0.82874   1.000
    O206    O    0.62581   0.34357   0.85101   1.000
    O207    O    0.54496   0.76712   0.88540   1.000
    O208    O    0.81241   0.57435   0.86621   1.000
    O209    O    0.88838   0.48646   0.87944   1.000
    O210    O    0.15153   0.67026   0.86286   1.000
    O211    O    0.10227   0.60975   0.89831   1.000
    O212    O    0.58297   0.43355   0.87116   1.000
    O213    O    0.54300   0.51579   0.88312   1.000
    O214    O    0.11804   0.74271   0.91374   1.000
    O215    O    0.96024   0.40034   0.89235   1.000
    O216    O    0.02892   0.32454   0.89865   1.000
    O217    O    0.63689   0.36626   0.92382   1.000
    O218    O    0.70571   0.62669   0.93379   1.000
    O219    O    0.80012   0.24152   0.92104   1.000
    O220    O    0.27253   0.97316   0.89946   1.000
    O221    O    0.36629   0.89377   0.92709   1.000
    O222    O    0.17131   0.96163   0.90113   1.000
    O223    O    0.12682   0.88135   0.93410   1.000
    O224    O    0.28564   0.27679   0.94800   1.000
    O225    O    0.86143   0.43620   0.94271   1.000
    O226    O    0.09935   0.06801   0.91993   1.000
    O227    O    0.19853   0.07766   0.92741   1.000
    O228    O    0.05402   0.55933   0.93393   1.000
    O229    O    0.43857   0.81966   0.95052   1.000
    O230    O    0.71440   0.30712   0.96143   1.000
    O231    O    0.08863   0.81556   0.96710   1.000
    O232    O    0.40164   0.49951   0.49868   1.000
    O233    O    0.15028   0.00068   0.00014   1.000
loop_
    _geom_bond_atom_site_label_1
    _geom_bond_atom_site_label_2
    _geom_bond_distance
    _geom_bond_site_symmetry_2
    _ccdc_geom_bond_type
    C84    O108      0.54450      .   S
    C31    O108      0.54450      .   S
    C84    O109      0.70190  1_554   S
    C79    O109      0.70190      .   S
    C84    O110      0.69628  1_554   S
    C83    O110      0.69628      .   S
    C69    O111      0.70437      .   S
    C68    O111      0.70437      .   S
    C69    O112      0.54508  1_554   S
    C22    O112      0.54508      .   S
    C69    O113      0.69627      .   S
    C70    O113      0.69627  1_556   S
    C63    O114      0.74570      .   S
    C61    O114      0.74570      .   S
    C63    O115      0.63915      .   S
    C99    O115      0.63915      .   S
    C63    O116      0.64152  1_554   S
    C98    O116      0.64152  1_455   S
    C24    O117      0.54434      .   S
    C72    O117      0.54434      .   S
    C43    O118      0.70195      .   S
    C48    O118      0.70195      .   S
    C43    O119      0.73927      .   S
    C40    O119      0.73927      .   S
    C43    O120      0.70351  1_654   S
    C44    O120      0.70351      .   S
    C64    O121      0.74445      .   S
    C65    O121      0.74445      .   S
    C64    O122      0.64137      .   S
    C101   O122      0.64137      .   S
    C64    O123      0.64074  1_554   S
    C100   O123      0.64074      .   S
    C61    O124      0.70123      .   S
    C60    O124      0.70123      .   S
    C61    O125      0.70001  1_554   S
    C62    O125      0.70001      .   S
    C48    O126      0.54438      .   S
    C11    O126      0.54438      .   S
    C48    O127      0.70005  1_655   S
    C47    O127      0.70005  1_556   S
    C30    O128      0.54497      .   S
    C83    O128      0.54497  1_556   S
    C104   O129      1.00798      .   S
    C3     O129      1.00798      .   S
    C104   O130      0.64021      .   S
    C78    O130      0.64021  1_556   S
    C58    O131      0.54437      .   S
    C16    O131      0.54437      .   S
    C58    O132      0.69715      .   S
    C59    O132      0.69715      .   S
    C58    O133      0.70329      .   S
    C57    O133      0.70329  1_556   S
    C65    O134      0.70216      .   S
    C66    O134      0.70216      .   S
    C65    O135      0.70187      .   S
    C70    O135      0.70187  1_556   S
    C94    O136      0.97725      .   S
    C3     O136      0.97725      .   S
    C94    O137      0.64154      .   S
    C49    O137      0.64154  1_556   S
    C25    O138      0.54350      .   S
    C73    O138      0.54350      .   S
    C6     O139      0.54500      .   S
    C41    O139      0.54500      .   S
    C3     O140      1.00150  1_565   S
    C99    O140      1.00150  1_655   S
    C3     O141      0.97218  1_565   S
    C101   O141      0.97218      .   S
    C72    O142      0.69713      .   S
    C73    O142      0.69713      .   S
    C72    O143      0.70329      .   S
    C71    O143      0.70329      .   S
    C40    O144      0.70440      .   S
    C41    O144      0.70440      .   S
    C40    O145      0.70367      .   S
    C39    O145      0.70367      .   S
    C68    O146      0.73936      .   S
    C71    O146      0.73936      .   S
    C68    O147      0.70371      .   S
    C67    O147      0.70371      .   S
    C73    O148      0.69665      .   S
    C74    O148      0.69665      .   S
    C60    O149      0.69670      .   S
    C59    O149      0.69670      .   S
    C60    O150      0.54434      .   S
    C18    O150      0.54434      .   S
    C41    O151      0.69617      .   S
    C42    O151      0.69617      .   S
    C59    O152      0.54349      .   S
    C17    O152      0.54349      .   S
    C71    O153      0.70193      .   S
    C76    O153      0.70193      .   S
    C5     O154      0.54492      .   S
    C39    O154      0.54492      .   S
    C66    O155      0.69391      .   S
    C67    O155      0.69391      .   S
    C66    O156      0.54427      .   S
    C20    O156      0.54427      .   S
    C39    O157      0.69374      .   S
    C38    O157      0.69374      .   S
    C67    O158      0.54494      .   S
    C21    O158      0.54494      .   S
    C42    O159      0.54451      .   S
    C7     O159      0.54451      .   S
    C42    O160      0.70197      .   S
    C37    O160      0.70197      .   S
    C74    O161      0.54433      .   S
    C26    O161      0.54433      .   S
    C74    O162      0.70118      .   S
    C75    O162      0.70118      .   S
    C76    O163      0.70007      .   S
    C75    O163      0.70007      .   S
    C76    O164      0.54439      .   S
    C27    O164      0.54439      .   S
    C38    O165      0.70220      .   S
    C37    O165      0.70220      .   S
    C38    O166      0.54422      .   S
    C4     O166      0.54422      .   S
    C75    O167      0.74573      .   S
    C77    O167      0.74573      .   S
    C37    O168      0.74442      .   S
    C36    O168      0.74442      .   S
    C77    O169      0.64153      .   S
    C102   O169      0.64153      .   S
    C77    O170      0.63918      .   S
    C103   O170      0.63918      .   S
    C36    O171      0.64067      .   S
    C92    O171      0.64067      .   S
    C36    O172      0.64123      .   S
    C93    O172      0.64123      .   S
    C92    O173      1.00820      .   S
    C0     O173      1.00820      .   S
    C102   O174      0.97731      .   S
    C0     O174      0.97731      .   S
    C103   O175      1.00056      .   S
    C1     O175      1.00056      .   S
    C93    O176      0.97162      .   S
    C1     O176      0.97162      .   S
    C0     O177      0.97282      .   S
    C97    O177      0.97282      .   S
    C0     O178      1.00166      .   S
    C107   O178      1.00166      .   S
    C1     O179      0.97647      .   S
    C106   O179      0.97647      .   S
    C1     O180      1.00810      .   S
    C96    O180      1.00810      .   S
    C97    O181      0.64142      .   S
    C50    O181      0.64142      .   S
    C107   O182      0.63915      .   S
    C91    O182      0.63915      .   S
    C106   O183      0.64156      .   S
    C91    O183      0.64156      .   S
    C96    O184      0.64075      .   S
    C50    O184      0.64075      .   S
    C50    O185      0.74462      .   S
    C51    O185      0.74462      .   S
    C91    O186      0.74552      .   S
    C89    O186      0.74552      .   S
    C12    O187      0.54426      .   S
    C52    O187      0.54426      .   S
    C35    O188      0.54423      .   S
    C90    O188      0.54423      .   S
    C51    O189      0.70219      .   S
    C52    O189      0.70219      .   S
    C51    O190      0.70185      .   S
    C56    O190      0.70185      .   S
    C29    O191      0.54536      .   S
    C81    O191      0.54536      .   S
    C89    O192      0.70018      .   S
    C90    O192      0.70018  1_655   S
    C89    O193      0.70134      .   S
    C88    O193      0.70134      .   S
    C52    O194      0.69357      .   S
    C53    O194      0.69357      .   S
    C34    O195      0.54437      .   S
    C88    O195      0.54437      .   S
    C90    O196      0.70216      .   S
    C85    O196      0.70216      .   S
    C15    O197      0.54443      .   S
    C56    O197      0.54443      .   S
    C28    O198      0.54426      .   S
    C80    O198      0.54426      .   S
    C56    O199      0.69617      .   S
    C55    O199      0.69617      .   S
    C9     O200      0.54354      .   S
    C45    O200      0.54354      .   S
    C88    O201      0.69665      .   S
    C87    O201      0.69665      .   S
    C10    O202      0.54433      .   S
    C46    O202      0.54433      .   S
    C81    O203      0.69385      .   S
    C80    O203      0.69385      .   S
    C81    O204      0.70371      .   S
    C82    O204      0.70371      .   S
    C53    O205      0.54505      .   S
    C13    O205      0.54505      .   S
    C53    O206      0.70410      .   S
    C54    O206      0.70410      .   S
    C80    O207      0.70217      .   S
    C79    O207      0.70217      .   S
    C85    O208      0.73940      .   S
    C82    O208      0.73940      .   S
    C85    O209      0.70326      .   S
    C86    O209      0.70326      .   S
    C45    O210      0.69667      .   S
    C46    O210      0.69667      .   S
    C45    O211      0.69701      .   S
    C44    O211      0.69701      .   S
    C55    O212      0.70445      .   S
    C54    O212      0.70445      .   S
    C55    O213      0.54505      .   S
    C14    O213      0.54505      .   S
    C46    O214      0.70130      .   S
    C47    O214      0.70130      .   S
    C87    O215      0.69723  1_455   S
    C86    O215      0.69723      .   S
    C87    O216      0.54350      .   S
    C33    O216      0.54350      .   S
    C54    O217      0.73953      .   S
    C57    O217      0.73953      .   S
    C82    O218      0.70439      .   S
    C83    O218      0.70439      .   S
    C19    O219      0.54435      .   S
    C62    O219      0.54435      .   S
    C105   O220      0.97196      .   S
    C2     O220      0.97196  1_545   S
    C105   O221      0.64144      .   S
    C78    O221      0.64144      .   S
    C95    O222      1.00052      .   S
    C2     O222      1.00052  1_545   S
    C95    O223      0.63908      .   S
    C49    O223      0.63908      .   S
    C23    O224      0.54442      .   S
    C70    O224      0.54442      .   S
    C86    O225      0.54433      .   S
    C32    O225      0.54433      .   S
    C2     O226      0.97652      .   S
    C98    O226      0.97652      .   S
    C2     O227      1.00728      .   S
    C100   O227      1.00728      .   S
    C8     O228      0.54416      .   S
    C44    O228      0.54416      .   S
    C79    O229      0.74448      .   S
    C78    O229      0.74448      .   S
    C62    O230      0.70194      .   S
    C57    O230      0.70194      .   S
    C47    O231      0.74572      .   S
    C49    O231      0.74572      .   S
    C0     O232      1.22047      .   S
    C1     O232      1.22047      .   S
    C2     O233      1.22068  1_556   S
    C3     O233      1.22068  1_565   S
