# CIF file generated by openbabel 2.4.90, see http://openbabel.sf.net
data_I
_chemical_name_common ''
_cell_length_a 16.171
_cell_length_b 16.186
_cell_length_c 26.823
_cell_angle_alpha 84.506
_cell_angle_beta 84.475
_cell_angle_gamma 84.441
_space_group_name_H-M_alt 'P 1'
_space_group_name_Hall 'P 1'
loop_
    _symmetry_equiv_pos_as_xyz
    x,y,z
loop_
    _atom_site_label
    _atom_site_type_symbol
    _atom_site_fract_x
    _atom_site_fract_y
    _atom_site_fract_z
    _atom_site_occupancy
    Zn0     Zn   0.89549   0.31560   0.47090   1.000
    Zn1     Zn   0.32666   0.72555   0.99186   1.000
    Zn2     Zn   0.31368   0.89881   0.97064   1.000
    Zn3     Zn   0.67335   0.27443   0.00816   1.000
    Zn4     Zn   0.68620   0.10118   0.02937   1.000
    Zn5     Zn   0.27785   0.67297   0.50660   1.000
    Zn6     Zn   0.10453   0.68440   0.52911   1.000
    Zn7     Zn   0.72217   0.32703   0.49341   1.000
loop_
    _geom_bond_atom_site_label_1
    _geom_bond_atom_site_label_2
    _geom_bond_distance
    _geom_bond_site_symmetry_2
    _ccdc_geom_bond_type
    Zn7    Zn0       2.80171      .   S
    Zn1    Zn2       2.79937      .   S
    Zn3    Zn4       2.79920      .   S
    Zn5    Zn6       2.80171      .   S
