# CIF file generated by openbabel 2.4.90, see http://openbabel.sf.net
data_I
_chemical_name_common ''
_cell_length_a 16.171
_cell_length_b 16.186
_cell_length_c 26.823
_cell_angle_alpha 84.506
_cell_angle_beta 84.475
_cell_angle_gamma 84.441
_space_group_name_H-M_alt 'P 1'
_space_group_name_Hall 'P 1'
loop_
    _symmetry_equiv_pos_as_xyz
    x,y,z
loop_
    _atom_site_label
    _atom_site_type_symbol
    _atom_site_fract_x
    _atom_site_fract_y
    _atom_site_fract_z
    _atom_site_occupancy
    N0      N    0.78601   0.85053   0.23018   1.000
    N1      N    0.84909   0.78783   0.72983   1.000
    N2      N    0.31734   0.31124   0.98483   1.000
    N3      N    0.15088   0.21216   0.27017   1.000
    N4      N    0.30806   0.31773   0.48547   1.000
    N5      N    0.68264   0.68875   0.01518   1.000
    N6      N    0.21397   0.14948   0.76982   1.000
    N7      N    0.69196   0.68226   0.51454   1.000
    Zr8     Zr   0.19119   0.67869   0.51786   1.000
    O9      O    0.02881   0.68172   0.52008   1.000
    O10     O    0.35408   0.67792   0.51341   1.000
    Zr11    Zr   0.67977   0.18781   0.01876   1.000
    O12     O    0.68277   0.02551   0.02067   1.000
    O13     O    0.67862   0.35073   0.01446   1.000
    Zr14    Zr   0.32017   0.81218   0.98125   1.000
    O15     O    0.31717   0.97448   0.97935   1.000
    O16     O    0.32135   0.64925   0.98556   1.000
    Zr17    Zr   0.80883   0.32132   0.48215   1.000
    O18     O    0.97121   0.31828   0.47993   1.000
    O19     O    0.64594   0.32208   0.48658   1.000
    O20     O    0.19678   0.80474   0.58857   1.000
    O21     O    0.19797   0.53237   0.58657   1.000
    O22     O    0.18144   0.55318   0.44838   1.000
    O23     O    0.18021   0.82584   0.45041   1.000
    O24     O    0.80204   0.46764   0.41344   1.000
    O25     O    0.80322   0.19527   0.41144   1.000
    O26     O    0.81856   0.44681   0.55163   1.000
    O27     O    0.81980   0.17416   0.54959   1.000
    O28     O    0.17288   0.82267   0.04906   1.000
    O29     O    0.44561   0.82123   0.05103   1.000
    O30     O    0.46638   0.80511   0.91266   1.000
    O31     O    0.19405   0.80622   0.91065   1.000
    O32     O    0.55434   0.17876   0.94898   1.000
    O33     O    0.82708   0.17733   0.95095   1.000
    O34     O    0.80590   0.19377   0.08936   1.000
    O35     O    0.53357   0.19488   0.08735   1.000
loop_
    _geom_bond_atom_site_label_1
    _geom_bond_atom_site_label_2
    _geom_bond_distance
    _geom_bond_site_symmetry_2
    _ccdc_geom_bond_type
    Zr8    O9        2.61653      .   S
    N7     O9        5.46269  1_655   S
    Zr8    O10       2.62409      .   S
    N7     O10       5.47422      .   S
    Zr11   O12       2.61844      .   S
    N5     O12       5.46705  1_565   S
    Zr11   O13       2.62694      .   S
    N5     O13       5.47965      .   S
    Zr14   O15       2.61843      .   S
    N2     O15       5.46702  1_545   S
    Zr14   O16       2.62695      .   S
    N2     O16       5.47968      .   S
    Zr17   O18       2.61652      .   S
    N4     O18       5.46264  1_455   S
    Zr17   O19       2.62413      .   S
    N4     O19       5.47423      .   S
    Zr8    O20       2.92883      .   S
    N6     O20       7.78489  1_545   S
    Zr8    O21       2.85850      .   S
    N6     O21       7.53226      .   S
    Zr8    O22       2.90991      .   S
    N3     O22       7.72010      .   S
    Zr8    O23       2.85169      .   S
    N3     O23       7.53503  1_545   S
    Zr17   O24       2.85863      .   S
    N0     O24       7.53255      .   S
    Zr17   O25       2.92887      .   S
    N0     O25       7.78516  1_565   S
    Zr17   O26       2.90971      .   S
    N1     O26       7.71958      .   S
    Zr17   O27       2.85168      .   S
    N1     O27       7.53502  1_565   S
    N0     O28       7.54741  1_655   S
    Zr14   O28       2.85608  1_556   S
    N0     O29       7.72340      .   S
    Zr14   O29       2.91215  1_556   S
    Zr14   O30       2.85286      .   S
    N1     O30       7.51740      .   S
    Zr14   O31       2.92769      .   S
    N1     O31       7.78077  1_655   S
    Zr11   O32       2.91211  1_554   S
    N6     O32       7.72347      .   S
    Zr11   O33       2.85628  1_554   S
    N6     O33       7.54785  1_455   S
    Zr11   O34       2.92767      .   S
    N3     O34       7.78066  1_455   S
    Zr11   O35       2.85271      .   S
    N3     O35       7.51697      .   S
