# CIF file generated by openbabel 2.4.90, see http://openbabel.sf.net
data_I
_chemical_name_common ''
_cell_length_a 16.171
_cell_length_b 16.186
_cell_length_c 26.823
_cell_angle_alpha 84.506
_cell_angle_beta 84.475
_cell_angle_gamma 84.441
_space_group_name_H-M_alt 'P 1'
_space_group_name_Hall 'P 1'
loop_
    _symmetry_equiv_pos_as_xyz
    x,y,z
loop_
    _atom_site_label
    _atom_site_type_symbol
    _atom_site_fract_x
    _atom_site_fract_y
    _atom_site_fract_z
    _atom_site_occupancy
    N0      N    0.78601   0.85053   0.23018   1.000
    N1      N    0.84909   0.78783   0.72983   1.000
    N2      N    0.31734   0.31124   0.98483   1.000
    N3      N    0.15088   0.21216   0.27017   1.000
    N4      N    0.30806   0.31773   0.48547   1.000
    N5      N    0.68264   0.68875   0.01518   1.000
    N6      N    0.21397   0.14948   0.76982   1.000
    N7      N    0.69196   0.68226   0.51454   1.000
    Zr8     Zr   0.19119   0.67869   0.51786   1.000
    O9      O    0.02881   0.68172   0.52008   1.000
    O10     O    0.16068   0.82712   0.45325   1.000
    O11     O    0.17722   0.80637   0.59126   1.000
    O12     O    0.16180   0.55475   0.45066   1.000
    O13     O    0.17831   0.53410   0.58890   1.000
    O14     O    0.20109   0.55162   0.44610   1.000
    O15     O    0.19974   0.82457   0.44758   1.000
    O16     O    0.35408   0.67792   0.51341   1.000
    O17     O    0.21763   0.53063   0.58424   1.000
    O18     O    0.21635   0.80310   0.58587   1.000
    Zr19    Zr   0.67977   0.18781   0.01876   1.000
    O20     O    0.53546   0.17524   0.08965   1.000
    O21     O    0.82853   0.15781   0.95371   1.000
    O22     O    0.55601   0.15913   0.95116   1.000
    O23     O    0.80763   0.17421   0.09196   1.000
    O24     O    0.68277   0.02551   0.02067   1.000
    O25     O    0.80418   0.21332   0.08675   1.000
    O26     O    0.55267   0.19839   0.94681   1.000
    O27     O    0.82562   0.19684   0.94819   1.000
    O28     O    0.67862   0.35073   0.01446   1.000
    O29     O    0.53168   0.21451   0.08506   1.000
    Zr30    Zr   0.32017   0.81218   0.98125   1.000
    O31     O    0.17142   0.84218   0.04630   1.000
    O32     O    0.46449   0.82474   0.91036   1.000
    O33     O    0.19232   0.82577   0.90805   1.000
    O34     O    0.31717   0.97448   0.97935   1.000
    O35     O    0.44393   0.84087   0.04885   1.000
    O36     O    0.46828   0.78547   0.91495   1.000
    O37     O    0.17434   0.80315   0.05182   1.000
    O38     O    0.19579   0.78666   0.91326   1.000
    O39     O    0.32135   0.64925   0.98556   1.000
    O40     O    0.44729   0.80160   0.05321   1.000
    Zr41    Zr   0.80883   0.32132   0.48215   1.000
    O42     O    0.97121   0.31828   0.47993   1.000
    O43     O    0.83933   0.17288   0.54676   1.000
    O44     O    0.83821   0.44525   0.54934   1.000
    O45     O    0.82169   0.46591   0.41110   1.000
    O46     O    0.82279   0.19363   0.40875   1.000
    O47     O    0.64594   0.32208   0.48658   1.000
    O48     O    0.80027   0.17543   0.55243   1.000
    O49     O    0.79892   0.44838   0.55391   1.000
    O50     O    0.78238   0.46937   0.41577   1.000
    O51     O    0.78366   0.19692   0.41413   1.000
loop_
    _geom_bond_atom_site_label_1
    _geom_bond_atom_site_label_2
    _geom_bond_distance
    _geom_bond_site_symmetry_2
    _ccdc_geom_bond_type
    Zr8    O9        2.61653      .   S
    N7     O9        5.46269  1_655   S
    Zr8    O10       2.85589      .   S
    N3     O10       7.55517  1_545   S
    Zr8    O11       2.96688      .   S
    N6     O11       7.77259  1_545   S
    Zr8    O12       2.92242      .   S
    N3     O12       7.72754      .   S
    Zr8    O13       2.88376      .   S
    N6     O13       7.52961      .   S
    Zr8    O14       2.93176      .   S
    N3     O14       7.72563      .   S
    Zr8    O15       2.88251      .   S
    N3     O15       7.52817  1_545   S
    Zr8    O16       2.62409      .   S
    N7     O16       5.47422      .   S
    Zr8    O17       2.86827      .   S
    N6     O17       7.54823      .   S
    Zr8    O18       2.92478      .   S
    N6     O18       7.81002  1_545   S
    Zr19   O20       2.87505      .   S
    N3     O20       7.51765      .   S
    Zr19   O21       2.86271  1_554   S
    N6     O21       7.56578  1_455   S
    Zr19   O22       2.92393  1_554   S
    N6     O22       7.73128      .   S
    Zr19   O23       2.96446      .   S
    N3     O23       7.76973  1_455   S
    Zr19   O24       2.61844      .   S
    N5     O24       5.46705  1_565   S
    Zr19   O25       2.92489      .   S
    N3     O25       7.80443  1_455   S
    Zr19   O26       2.93458  1_554   S
    N6     O26       7.72863      .   S
    Zr19   O27       2.88478  1_554   S
    N6     O27       7.54317  1_455   S
    Zr19   O28       2.62694      .   S
    N5     O28       5.47965      .   S
    Zr19   O29       2.86546      .   S
    N3     O29       7.52965      .   S
    Zr30   O31       2.86264  1_556   S
    N0     O31       7.56521  1_655   S
    Zr30   O32       2.87516      .   S
    N1     O32       7.51811      .   S
    Zr30   O33       2.96463      .   S
    N1     O33       7.76969  1_655   S
    Zr30   O34       2.61843      .   S
    N2     O34       5.46702  1_545   S
    Zr30   O35       2.92384  1_556   S
    N0     O35       7.73134      .   S
    Zr30   O36       2.86566      .   S
    N1     O36       7.53004      .   S
    Zr30   O37       2.88446  1_556   S
    N0     O37       7.54287  1_655   S
    Zr30   O38       2.92478      .   S
    N1     O38       7.80468  1_655   S
    Zr30   O39       2.62695      .   S
    N2     O39       5.47968      .   S
    Zr30   O40       2.93476  1_556   S
    N0     O40       7.72842      .   S
    Zr41   O42       2.61652      .   S
    N4     O42       5.46264  1_455   S
    Zr41   O43       2.85587      .   S
    N1     O43       7.55519  1_565   S
    Zr41   O44       2.92221      .   S
    N1     O44       7.72704      .   S
    Zr41   O45       2.88389      .   S
    N0     O45       7.52991      .   S
    Zr41   O46       2.96694      .   S
    N0     O46       7.77285  1_565   S
    Zr41   O47       2.62413      .   S
    N4     O47       5.47423      .   S
    Zr41   O48       2.88252      .   S
    N1     O48       7.52814  1_565   S
    Zr41   O49       2.93157      .   S
    N1     O49       7.72511      .   S
    Zr41   O50       2.86841      .   S
    N0     O50       7.54852      .   S
    Zr41   O51       2.92480      .   S
    N0     O51       7.81032  1_565   S
