# CIF file generated by openbabel 2.4.90, see http://openbabel.sf.net
data_I
_chemical_name_common ''
_cell_length_a 16.171
_cell_length_b 16.186
_cell_length_c 26.823
_cell_angle_alpha 84.506
_cell_angle_beta 84.475
_cell_angle_gamma 84.441
_space_group_name_H-M_alt 'P 1'
_space_group_name_Hall 'P 1'
loop_
    _symmetry_equiv_pos_as_xyz
    x,y,z
loop_
    _atom_site_label
    _atom_site_type_symbol
    _atom_site_fract_x
    _atom_site_fract_y
    _atom_site_fract_z
    _atom_site_occupancy
    Zr0     Zr   0.72217   0.32703   0.49341   1.000
    Zr1     Zr   0.89549   0.31560   0.47090   1.000
    Zr2     Zr   0.32666   0.72555   0.99186   1.000
    Zr3     Zr   0.31368   0.89881   0.97064   1.000
    Zr4     Zr   0.67335   0.27443   0.00816   1.000
    Zr5     Zr   0.68620   0.10118   0.02937   1.000
    Zr6     Zr   0.27785   0.67297   0.50660   1.000
    Zr7     Zr   0.10453   0.68440   0.52911   1.000
    O8      O    0.80883   0.32132   0.48215   1.000
    O9      O    0.32017   0.81218   0.98125   1.000
    O10     O    0.67977   0.18781   0.01876   1.000
    O11     O    0.19119   0.67869   0.51786   1.000
    N12     N    0.78601   0.85053   0.23018   1.000
    O13     O    0.75594   0.61743   0.34938   1.000
    O14     O    0.83456   0.61051   0.34005   1.000
    O15     O    0.57441   0.79102   0.12516   1.000
    O16     O    0.56770   0.86955   0.11645   1.000
    O17     O    0.83674   0.06595   0.33534   1.000
    O18     O    0.75849   0.07252   0.34611   1.000
    O19     O    0.02851   0.79413   0.12240   1.000
    O20     O    0.02266   0.87218   0.11136   1.000
    N21     N    0.84909   0.78783   0.72983   1.000
    O22     O    0.61639   0.75877   0.84866   1.000
    O23     O    0.60880   0.83730   0.83947   1.000
    O24     O    0.78901   0.57543   0.62566   1.000
    O25     O    0.86758   0.56918   0.61653   1.000
    O26     O    0.06447   0.83937   0.83485   1.000
    O27     O    0.07140   0.76114   0.84526   1.000
    O28     O    0.79171   0.02954   0.62270   1.000
    O29     O    0.86982   0.02445   0.61136   1.000
    N30     N    0.31734   0.31124   0.98483   1.000
    O31     O    0.32252   0.48632   0.98986   1.000
    O32     O    0.31417   0.13678   0.97745   1.000
    N33     N    0.15088   0.21216   0.27017   1.000
    O34     O    0.38359   0.24121   0.15136   1.000
    O35     O    0.39114   0.16268   0.16053   1.000
    O36     O    0.21098   0.42455   0.37434   1.000
    O37     O    0.13241   0.43081   0.38347   1.000
    O38     O    0.93548   0.16062   0.16515   1.000
    O39     O    0.92858   0.23883   0.15474   1.000
    O40     O    0.20828   0.97045   0.37730   1.000
    O41     O    0.13017   0.97555   0.38864   1.000
    N42     N    0.30806   0.31773   0.48547   1.000
    O43     O    0.48306   0.32285   0.49101   1.000
    O44     O    0.13358   0.31525   0.47771   1.000
    N45     N    0.68264   0.68875   0.01518   1.000
    O46     O    0.67747   0.51366   0.01016   1.000
    O47     O    0.68577   0.86321   0.02257   1.000
    N48     N    0.21397   0.14948   0.76982   1.000
    O49     O    0.24406   0.38258   0.65062   1.000
    O50     O    0.16544   0.38950   0.65995   1.000
    O51     O    0.42556   0.20898   0.87485   1.000
    O52     O    0.43225   0.13045   0.88355   1.000
    O53     O    0.16325   0.93406   0.66467   1.000
    O54     O    0.24150   0.92752   0.65389   1.000
    O55     O    0.97147   0.20587   0.87761   1.000
    O56     O    0.97728   0.12782   0.88865   1.000
    N57     N    0.69196   0.68226   0.51454   1.000
    O58     O    0.51696   0.67715   0.50897   1.000
    O59     O    0.86644   0.68475   0.52230   1.000
loop_
    _geom_bond_atom_site_label_1
    _geom_bond_atom_site_label_2
    _geom_bond_distance
    _geom_bond_site_symmetry_2
    _ccdc_geom_bond_type
    Zr0    O8        1.40085      .   S
    Zr1    O8        1.40085      .   S
    Zr2    O9        1.39968      .   S
    Zr3    O9        1.39968      .   S
    Zr4    O10       1.39960      .   S
    Zr5    O10       1.39960      .   S
    Zr6    O11       1.40085      .   S
    Zr7    O11       1.40085      .   S
    N12    O13       4.73724      .   S
    Zr0    O13       5.82504      .   S
    N12    O14       4.69663      .   S
    Zr1    O14       5.71143      .   S
    N12    O15       4.85636      .   S
    Zr2    O15       5.85366  1_556   S
    N12    O16       4.85248      .   S
    Zr3    O16       5.89539  1_556   S
    N12    O17       4.86511  1_565   S
    Zr1    O17       5.88866      .   S
    N12    O18       4.93362  1_565   S
    Zr0    O18       5.92690      .   S
    N12    O19       4.71157  1_655   S
    Zr2    O19       5.76143  1_556   S
    N12    O20       4.75640  1_655   S
    Zr3    O20       5.76546  1_556   S
    N21    O22       4.72088      .   S
    Zr2    O22       5.79842      .   S
    N21    O23       4.69435      .   S
    Zr3    O23       5.71511      .   S
    N21    O24       4.85571      .   S
    Zr0    O24       5.85060      .   S
    N21    O25       4.85057      .   S
    Zr1    O25       5.88907      .   S
    N21    O26       4.86452  1_655   S
    Zr3    O26       5.88921      .   S
    N21    O27       4.92789  1_655   S
    Zr2    O27       5.92148      .   S
    N21    O28       4.69915  1_565   S
    Zr0    O28       5.74298      .   S
    N21    O29       4.75310  1_565   S
    Zr1    O29       5.76659      .   S
    N30    O31       2.85967      .   S
    Zr2    O31       3.88479      .   S
    N30    O32       2.85522      .   S
    Zr3    O32       3.87430  1_565   S
    N33    O34       4.72066      .   S
    Zr4    O34       5.79873      .   S
    N33    O35       4.69401      .   S
    Zr5    O35       5.71418      .   S
    N33    O36       4.85604      .   S
    Zr6    O36       5.85108      .   S
    N33    O37       4.85086      .   S
    Zr7    O37       5.88939      .   S
    N33    O38       4.86474  1_455   S
    Zr5    O38       5.88970      .   S
    N33    O39       4.92751  1_455   S
    Zr4    O39       5.92087      .   S
    N33    O40       4.69920  1_545   S
    Zr6    O40       5.74305      .   S
    N33    O41       4.75306  1_545   S
    Zr7    O41       5.76655      .   S
    N42    O43       2.85769      .   S
    Zr0    O43       3.88060      .   S
    N42    O44       2.85343      .   S
    Zr1    O44       3.87146  1_655   S
    N45    O46       2.85963      .   S
    Zr4    O46       3.88472      .   S
    N45    O47       2.85523      .   S
    Zr5    O47       3.87428  1_545   S
    N48    O49       4.73709      .   S
    Zr6    O49       5.82486      .   S
    N48    O50       4.69645      .   S
    Zr7    O50       5.71109      .   S
    N48    O51       4.85673      .   S
    Zr4    O51       5.85408  1_554   S
    N48    O52       4.85233      .   S
    Zr5    O52       5.89479  1_554   S
    N48    O53       4.86492  1_545   S
    Zr7    O53       5.88846      .   S
    N48    O54       4.93333  1_545   S
    Zr6    O54       5.92694      .   S
    N48    O55       4.71154  1_455   S
    Zr4    O55       5.76133  1_554   S
    N48    O56       4.75690  1_455   S
    Zr5    O56       5.76634  1_554   S
    N57    O58       2.85777      .   S
    Zr6    O58       3.88048      .   S
    N57    O59       2.85346      .   S
    Zr7    O59       3.87149  1_455   S
