# CIF file generated by openbabel 2.4.90, see http://openbabel.sf.net
data_I
_chemical_name_common ''
_cell_length_a 20.649
_cell_length_b 13.709
_cell_length_c 14.912
_cell_angle_alpha 89.983
_cell_angle_beta 90
_cell_angle_gamma 90.33
_space_group_name_H-M_alt 'P 1'
_space_group_name_Hall 'P 1'
loop_
    _symmetry_equiv_pos_as_xyz
    x,y,z
loop_
    _atom_site_label
    _atom_site_type_symbol
    _atom_site_fract_x
    _atom_site_fract_y
    _atom_site_fract_z
    _atom_site_occupancy
    P0      P    0.11564   0.61763   0.10713   1.000
    P1      P    0.61520   0.61722   0.10700   1.000
    P2      P    0.12112   0.40958   0.88865   1.000
    P3      P    0.62111   0.40874   0.88868   1.000
    P4      P    0.26091   0.73560   0.89947   1.000
    P5      P    0.76084   0.73568   0.89937   1.000
    P6      P    0.00391   0.62479   0.76441   1.000
    P7      P    0.50351   0.62482   0.76504   1.000
    P8      P    0.13544   0.88299   0.60795   1.000
    P9      P    0.63595   0.88230   0.60740   1.000
    P10     P    0.12986   0.09049   0.38861   1.000
    P11     P    0.62983   0.09063   0.38850   1.000
    P12     P    0.49083   0.76444   0.39924   1.000
    P13     P    0.99079   0.76450   0.39902   1.000
    P14     P    0.24782   0.87439   0.26480   1.000
    P15     P    0.74792   0.87482   0.26445   1.000
    P16     P    0.38651   0.38238   0.89376   1.000
    P17     P    0.88529   0.38281   0.89228   1.000
    P18     P    0.37987   0.59055   0.11168   1.000
    P19     P    0.87988   0.59044   0.11146   1.000
    P20     P    0.24065   0.26414   0.10077   1.000
    P21     P    0.74015   0.26481   0.10106   1.000
    P22     P    0.49747   0.37500   0.23600   1.000
    P23     P    0.99789   0.37447   0.23519   1.000
    P24     P    0.36573   0.11685   0.39247   1.000
    P25     P    0.86564   0.11738   0.39287   1.000
    P26     P    0.37108   0.90935   0.61149   1.000
    P27     P    0.87118   0.90912   0.61137   1.000
    P28     P    0.01086   0.23561   0.60059   1.000
    P29     P    0.51082   0.23570   0.60065   1.000
    P30     P    0.25415   0.12556   0.73532   1.000
    P31     P    0.75349   0.12481   0.73503   1.000
