# CIF file generated by openbabel 2.4.90, see http://openbabel.sf.net
data_I
_chemical_name_common ''
_cell_length_a 20.649
_cell_length_b 13.709
_cell_length_c 14.912
_cell_angle_alpha 89.983
_cell_angle_beta 90
_cell_angle_gamma 90.33
_space_group_name_H-M_alt 'P 1'
_space_group_name_Hall 'P 1'
loop_
    _symmetry_equiv_pos_as_xyz
    x,y,z
loop_
    _atom_site_label
    _atom_site_type_symbol
    _atom_site_fract_x
    _atom_site_fract_y
    _atom_site_fract_z
    _atom_site_occupancy
    O0      O    0.07827   0.36678   0.81357   1.000
    O1      O    0.57828   0.36685   0.81315   1.000
    O2      O    0.09496   0.37418   0.98044   1.000
    O3      O    0.59484   0.37220   0.98007   1.000
    O4      O    0.11664   0.52113   0.88691   1.000
    O5      O    0.61675   0.52037   0.88770   1.000
    O6      O    0.20619   0.66156   0.88298   1.000
    O7      O    0.70625   0.66138   0.88289   1.000
    O8      O    0.25280   0.82924   0.84390   1.000
    O9      O    0.75268   0.82932   0.84378   1.000
    O10     O    0.26409   0.76564   0.99945   1.000
    O11     O    0.76392   0.76565   0.99937   1.000
    O12     O    0.32552   0.68770   0.87138   1.000
    O13     O    0.82560   0.68822   0.87128   1.000
    O14     O    0.46099   0.64855   0.84729   1.000
    O15     O    0.96101   0.64507   0.84700   1.000
    O16     O    0.49730   0.51599   0.74109   1.000
    O17     O    0.99959   0.51645   0.73800   1.000
    O18     O    0.48065   0.68394   0.68379   1.000
    O19     O    0.98014   0.68490   0.68432   1.000
    O20     O    0.07450   0.65268   0.78766   1.000
    O21     O    0.57454   0.65070   0.78772   1.000
    O22     O    0.13305   0.50867   0.11670   1.000
    O23     O    0.63115   0.50784   0.11661   1.000
    O24     O    0.09230   0.63624   0.01017   1.000
    O25     O    0.59211   0.63634   0.01006   1.000
    O26     O    0.06121   0.64541   0.17208   1.000
    O27     O    0.56107   0.64608   0.17203   1.000
    O28     O    0.17578   0.67893   0.12875   1.000
    O29     O    0.67599   0.67707   0.12860   1.000
    O30     O    0.19132   0.37603   0.87519   1.000
    O31     O    0.69132   0.37523   0.87496   1.000
    O32     O    0.17228   0.13307   0.31284   1.000
    O33     O    0.67222   0.13309   0.31273   1.000
    O34     O    0.15569   0.12781   0.47997   1.000
    O35     O    0.65568   0.12822   0.47980   1.000
    O36     O    0.13569   0.97907   0.38769   1.000
    O37     O    0.63567   0.97922   0.38760   1.000
    O38     O    0.04490   0.83973   0.38262   1.000
    O39     O    0.54461   0.84020   0.38268   1.000
    O40     O    0.49977   0.67118   0.34351   1.000
    O41     O    0.99957   0.67118   0.34327   1.000
    O42     O    0.48846   0.73395   0.49910   1.000
    O43     O    0.98817   0.73400   0.49891   1.000
    O44     O    0.42539   0.81030   0.37180   1.000
    O45     O    0.92563   0.81117   0.37152   1.000
    O46     O    0.29094   0.85499   0.34737   1.000
    O47     O    0.79095   0.85501   0.34702   1.000
    O48     O    0.25212   0.98273   0.23780   1.000
    O49     O    0.75247   0.98316   0.23769   1.000
    O50     O    0.27182   0.81350   0.18531   1.000
    O51     O    0.77155   0.81371   0.18487   1.000
    O52     O    0.17744   0.84614   0.28876   1.000
    O53     O    0.67733   0.84735   0.28812   1.000
    O54     O    0.11918   0.99230   0.61689   1.000
    O55     O    0.62182   0.99221   0.61708   1.000
    O56     O    0.15869   0.86422   0.51093   1.000
    O57     O    0.65849   0.86277   0.51030   1.000
    O58     O    0.18938   0.85447   0.67336   1.000
    O59     O    0.68954   0.85095   0.67239   1.000
    O60     O    0.07484   0.82270   0.62912   1.000
    O61     O    0.57435   0.82463   0.62912   1.000
    O62     O    0.05922   0.12231   0.37517   1.000
    O63     O    0.55917   0.12244   0.37513   1.000
    O64     O    0.42223   0.63312   0.18748   1.000
    O65     O    0.92230   0.63307   0.18716   1.000
    O66     O    0.40577   0.62804   0.02041   1.000
    O67     O    0.90573   0.62743   0.01998   1.000
    O68     O    0.38569   0.47906   0.11267   1.000
    O69     O    0.88557   0.47897   0.11259   1.000
    O70     O    0.29554   0.33819   0.11643   1.000
    O71     O    0.79463   0.33954   0.11710   1.000
    O72     O    0.24927   0.17081   0.15650   1.000
    O73     O    0.74896   0.17144   0.15679   1.000
    O74     O    0.23664   0.23359   0.00100   1.000
    O75     O    0.73681   0.23424   0.00124   1.000
    O76     O    0.17605   0.31201   0.12897   1.000
    O77     O    0.67520   0.31188   0.12896   1.000
    O78     O    0.04115   0.35500   0.15280   1.000
    O79     O    0.53943   0.35462   0.15245   1.000
    O80     O    0.00217   0.48283   0.26204   1.000
    O81     O    0.50264   0.48335   0.26234   1.000
    O82     O    0.02177   0.31365   0.31487   1.000
    O83     O    0.52182   0.31396   0.31524   1.000
    O84     O    0.42647   0.34812   0.21391   1.000
    O85     O    0.92753   0.34611   0.21119   1.000
    O86     O    0.37199   0.49210   0.88327   1.000
    O87     O    0.86907   0.49212   0.88298   1.000
    O88     O    0.41051   0.36380   0.99047   1.000
    O89     O    0.90858   0.36446   0.98933   1.000
    O90     O    0.43931   0.35070   0.82762   1.000
    O91     O    0.93930   0.35410   0.82707   1.000
    O92     O    0.32470   0.32433   0.87441   1.000
    O93     O    0.82473   0.32231   0.87121   1.000
    O94     O    0.30918   0.62224   0.12494   1.000
    O95     O    0.80928   0.62245   0.12486   1.000
    O96     O    0.32821   0.86685   0.68668   1.000
    O97     O    0.82837   0.86683   0.68673   1.000
    O98     O    0.34479   0.87422   0.51971   1.000
    O99     O    0.84492   0.87356   0.51969   1.000
    O100    O    0.36683   0.02092   0.61317   1.000
    O101    O    0.86679   0.02068   0.61282   1.000
    O102    O    0.45604   0.16173   0.61708   1.000
    O103    O    0.95624   0.16134   0.61705   1.000
    O104    O    0.00265   0.32916   0.65619   1.000
    O105    O    0.50272   0.32930   0.65629   1.000
    O106    O    0.01402   0.26564   0.50061   1.000
    O107    O    0.51406   0.26581   0.50070   1.000
    O108    O    0.07559   0.18814   0.62877   1.000
    O109    O    0.57539   0.18769   0.62875   1.000
    O110    O    0.21104   0.14532   0.65274   1.000
    O111    O    0.71095   0.14850   0.65277   1.000
    O112    O    0.24979   0.01721   0.76204   1.000
    O113    O    0.74743   0.01597   0.75899   1.000
    O114    O    0.23052   0.18627   0.81511   1.000
    O115    O    0.73053   0.18374   0.81629   1.000
    O116    O    0.32458   0.15372   0.71157   1.000
    O117    O    0.82450   0.15089   0.71232   1.000
    O118    O    0.38329   0.00798   0.38278   1.000
    O119    O    0.88297   0.00837   0.38329   1.000
    O120    O    0.34206   0.13405   0.48956   1.000
    O121    O    0.84230   0.13588   0.48984   1.000
    O122    O    0.31133   0.14499   0.32765   1.000
    O123    O    0.81123   0.14536   0.32790   1.000
    O124    O    0.42576   0.17863   0.37150   1.000
    O125    O    0.92581   0.17866   0.37130   1.000
    O126    O    0.44119   0.87527   0.62485   1.000
    O127    O    0.94138   0.87544   0.62479   1.000
