# CIF file generated by openbabel 2.4.90, see http://openbabel.sf.net
data_I
_chemical_name_common ''
_cell_length_a 20.649
_cell_length_b 13.709
_cell_length_c 14.912
_cell_angle_alpha 89.983
_cell_angle_beta 90
_cell_angle_gamma 90.33
_space_group_name_H-M_alt 'P 1'
_space_group_name_Hall 'P 1'
loop_
    _symmetry_equiv_pos_as_xyz
    x,y,z
loop_
    _atom_site_label
    _atom_site_type_symbol
    _atom_site_fract_x
    _atom_site_fract_y
    _atom_site_fract_z
    _atom_site_occupancy
    Zr0     Zr   0.11948   0.66002   0.89414   1.000
    Zr1     Zr   0.61950   0.65958   0.89408   1.000
    Zr2     Zr   0.11224   0.38588   0.09608   1.000
    Zr3     Zr   0.61094   0.38488   0.09596   1.000
    Zr4     Zr   0.25495   0.72005   0.10865   1.000
    Zr5     Zr   0.75479   0.71983   0.10852   1.000
    Zr6     Zr   0.00417   0.39040   0.75796   1.000
    Zr7     Zr   0.50365   0.38969   0.75860   1.000
    Zr8     Zr   0.13173   0.84028   0.39463   1.000
    Zr9     Zr   0.63151   0.84047   0.39398   1.000
    Zr10    Zr   0.13977   0.11511   0.59590   1.000
    Zr11    Zr   0.64012   0.11564   0.59581   1.000
    Zr12    Zr   0.49642   0.77914   0.60847   1.000
    Zr13    Zr   0.99641   0.77909   0.60824   1.000
    Zr14    Zr   0.24673   0.10871   0.25800   1.000
    Zr15    Zr   0.74680   0.10915   0.25808   1.000
    Zr16    Zr   0.38245   0.34006   0.10640   1.000
    Zr17    Zr   0.88154   0.34016   0.10552   1.000
    Zr18    Zr   0.39022   0.61562   0.90438   1.000
    Zr19    Zr   0.88971   0.61494   0.90400   1.000
    Zr20    Zr   0.24625   0.27966   0.89214   1.000
    Zr21    Zr   0.74621   0.27871   0.89183   1.000
    Zr22    Zr   0.49689   0.60935   0.24206   1.000
    Zr23    Zr   0.99684   0.60891   0.24194   1.000
    Zr24    Zr   0.36939   0.16003   0.60522   1.000
    Zr25    Zr   0.86949   0.15969   0.60586   1.000
    Zr26    Zr   0.36209   0.88538   0.40406   1.000
    Zr27    Zr   0.86204   0.88563   0.40400   1.000
    Zr28    Zr   0.00493   0.22004   0.39141   1.000
    Zr29    Zr   0.50490   0.22011   0.39159   1.000
    Zr30    Zr   0.25422   0.89110   0.74239   1.000
    Zr31    Zr   0.75379   0.88974   0.74148   1.000
    Zr32    Zr   0.10529   0.78278   0.90613   1.000
    Zr33    Zr   0.60527   0.78237   0.90598   1.000
    Zr34    Zr   0.14475   0.71752   0.40976   1.000
    Zr35    Zr   0.64471   0.71738   0.40606   1.000
    Zr36    Zr   0.39742   0.21755   0.09401   1.000
    Zr37    Zr   0.89471   0.21748   0.09026   1.000
    Zr38    Zr   0.35529   0.28246   0.59011   1.000
    Zr39    Zr   0.85525   0.28243   0.59396   1.000
    O40     O    0.88812   0.27882   0.09789   1.000
    O41     O    0.38993   0.27880   0.10021   1.000
    O42     O    0.63811   0.77893   0.40002   1.000
    O43     O    0.13824   0.77890   0.40220   1.000
    O44     O    0.36234   0.22125   0.59767   1.000
    O45     O    0.86237   0.22106   0.59991   1.000
    O46     O    0.61238   0.72098   0.90003   1.000
    O47     O    0.11238   0.72140   0.90014   1.000
    N48     N    0.49747   0.37500   0.23600   1.000
    O49     O    0.50120   0.51485   0.25727   1.000
    O50     O    0.41547   0.34611   0.18703   1.000
    O51     O    0.51759   0.29050   0.33433   1.000
    O52     O    0.55730   0.36218   0.13833   1.000
    N53     N    0.24065   0.26414   0.10077   1.000
    O54     O    0.31727   0.33866   0.11392   1.000
    O55     O    0.24864   0.15528   0.18188   1.000
    O56     O    0.16009   0.33048   0.12075   1.000
    O57     O    0.23904   0.24511   0.97379   1.000
    N58     N    0.74015   0.26481   0.10106   1.000
    O59     O    0.65913   0.33013   0.12071   1.000
    O60     O    0.81636   0.33969   0.11421   1.000
    O61     O    0.73916   0.24536   0.97389   1.000
    O62     O    0.74842   0.15587   0.18211   1.000
    N63     N    0.00391   0.62479   0.76441   1.000
    O64     O    0.98420   0.70844   0.66530   1.000
    O65     O    0.00073   0.48494   0.74299   1.000
    O66     O    0.94319   0.63754   0.86125   1.000
    O67     O    0.08575   0.65452   0.81428   1.000
    N68     N    0.62111   0.40874   0.88868   1.000
    O69     O    0.59886   0.37537   0.00904   1.000
    O70     O    0.55963   0.37256   0.79951   1.000
    O71     O    0.61744   0.55517   0.88930   1.000
    O72     O    0.70504   0.35110   0.87918   1.000
    N73     N    0.13544   0.88299   0.60795   1.000
    O74     O    0.12433   0.02300   0.61164   1.000
    O75     O    0.05523   0.81180   0.62390   1.000
    O76     O    0.15195   0.85824   0.48186   1.000
    O77     O    0.20559   0.86363   0.69062   1.000
    N78     N    0.76084   0.73568   0.89937   1.000
    O79     O    0.75296   0.84442   0.81821   1.000
    O80     O    0.76164   0.75419   0.02666   1.000
    O81     O    0.68456   0.66093   0.88569   1.000
    O82     O    0.84163   0.66990   0.87946   1.000
    N83     N    0.50351   0.62482   0.76504   1.000
    O84     O    0.48459   0.70774   0.66496   1.000
    O85     O    0.49889   0.48442   0.74547   1.000
    O86     O    0.58578   0.65292   0.81431   1.000
    O87     O    0.44330   0.64032   0.86156   1.000
    N88     N    0.87988   0.59044   0.11146   1.000
    O89     O    0.94094   0.62703   0.20086   1.000
    O90     O    0.79566   0.64679   0.12078   1.000
    O91     O    0.88456   0.44427   0.11082   1.000
    O92     O    0.90173   0.62431   0.99099   1.000
    N93     N    0.38651   0.38238   0.89376   1.000
    O94     O    0.30508   0.31316   0.87884   1.000
    O95     O    0.37655   0.52298   0.88855   1.000
    O96     O    0.45539   0.36045   0.81037   1.000
    O97     O    0.40350   0.35787   0.01945   1.000
    N98     N    0.51082   0.23570   0.60065   1.000
    O99     O    0.51177   0.25439   0.47342   1.000
    O100    O    0.59157   0.16968   0.62052   1.000
    O101    O    0.50295   0.34439   0.68187   1.000
    O102    O    0.43438   0.16131   0.61412   1.000
    N103    N    0.99079   0.76450   0.39902   1.000
    O104    O    0.99023   0.74527   0.52624   1.000
    O105    O    0.99888   0.65561   0.31794   1.000
    O106    O    0.06661   0.83987   0.38562   1.000
    O107    O    0.90973   0.82978   0.37964   1.000
    N108    N    0.62983   0.09063   0.38850   1.000
    O109    O    0.54560   0.14686   0.37925   1.000
    O110    O    0.69087   0.12710   0.29907   1.000
    O111    O    0.63463   0.94453   0.38920   1.000
    O112    O    0.65179   0.12507   0.50880   1.000
    N113    N    0.37987   0.59055   0.11168   1.000
    O114    O    0.44089   0.62718   0.20113   1.000
    O115    O    0.38488   0.44431   0.11110   1.000
    O116    O    0.40188   0.62493   0.99140   1.000
    O117    O    0.29562   0.64669   0.12087   1.000
    N118    N    0.11564   0.61763   0.10713   1.000
    O119    O    0.19557   0.68921   0.12373   1.000
    O120    O    0.04512   0.63628   0.18955   1.000
    O121    O    0.12785   0.47797   0.11155   1.000
    O122    O    0.09909   0.64219   0.98116   1.000
    N123    N    0.88529   0.38281   0.89228   1.000
    O124    O    0.95552   0.36318   0.80979   1.000
    O125    O    0.80510   0.31141   0.87637   1.000
    O126    O    0.90182   0.35838   0.01838   1.000
    O127    O    0.87423   0.52282   0.88824   1.000
    N128    N    0.26091   0.73560   0.89947   1.000
    O129    O    0.34170   0.66968   0.87963   1.000
    O130    O    0.25315   0.84470   0.81852   1.000
    O131    O    0.26181   0.75424   0.02675   1.000
    O132    O    0.18451   0.66118   0.88577   1.000
    N133    N    0.75349   0.12481   0.73503   1.000
    O134    O    0.69324   0.14028   0.63853   1.000
    O135    O    0.73445   0.20748   0.83518   1.000
    O136    O    0.74902   0.98441   0.75461   1.000
    O137    O    0.83575   0.15309   0.68571   1.000
    N138    N    0.01086   0.23561   0.60059   1.000
    O139    O    0.00303   0.34447   0.68163   1.000
    O140    O    0.93456   0.16093   0.61425   1.000
    O141    O    0.09163   0.16988   0.62055   1.000
    O142    O    0.01175   0.25424   0.47331   1.000
    N143    N    0.61520   0.61722   0.10700   1.000
    O144    O    0.62610   0.47710   0.11145   1.000
    O145    O    0.54502   0.63690   0.18954   1.000
    O146    O    0.69569   0.68776   0.12358   1.000
    O147    O    0.59896   0.64215   0.98107   1.000
    N148    N    0.63595   0.88230   0.60740   1.000
    O149    O    0.55486   0.81326   0.62396   1.000
    O150    O    0.65175   0.85719   0.48122   1.000
    O151    O    0.62640   0.02307   0.61176   1.000
    O152    O    0.70560   0.86065   0.68966   1.000
    N153    N    0.12112   0.40958   0.88865   1.000
    O154    O    0.20505   0.35194   0.87943   1.000
    O155    O    0.09928   0.37710   0.00935   1.000
    O156    O    0.05974   0.37268   0.79967   1.000
    O157    O    0.11735   0.55585   0.88872   1.000
    N158    N    0.12986   0.09049   0.38861   1.000
    O159    O    0.15171   0.12464   0.50895   1.000
    O160    O    0.19089   0.12698   0.29913   1.000
    O161    O    0.04564   0.14674   0.37923   1.000
    O162    O    0.13470   0.94437   0.38943   1.000
    N163    N    0.25415   0.12556   0.73532   1.000
    O164    O    0.25090   0.98568   0.75713   1.000
    O165    O    0.33578   0.15530   0.68498   1.000
    O166    O    0.19322   0.13777   0.63853   1.000
    O167    O    0.23445   0.20962   0.83437   1.000
    N168    N    0.87118   0.90912   0.61137   1.000
    O169    O    0.80972   0.87256   0.70042   1.000
    O170    O    0.84920   0.87657   0.49077   1.000
    O171    O    0.86747   0.05543   0.61108   1.000
    O172    O    0.95513   0.85135   0.62065   1.000
    N173    N    0.37108   0.90935   0.61149   1.000
    O174    O    0.30971   0.87291   0.70061   1.000
    O175    O    0.36747   0.05569   0.61118   1.000
    O176    O    0.34912   0.87701   0.49080   1.000
    O177    O    0.45500   0.85124   0.62076   1.000
    N178    N    0.24782   0.87439   0.26480   1.000
    O179    O    0.25077   0.01422   0.24285   1.000
    O180    O    0.26760   0.79014   0.16615   1.000
    O181    O    0.30873   0.86259   0.36154   1.000
    O182    O    0.16601   0.84468   0.31523   1.000
    N183    N    0.74792   0.87482   0.26445   1.000
    O184    O    0.75105   0.01466   0.24279   1.000
    O185    O    0.76736   0.79024   0.16578   1.000
    O186    O    0.66587   0.84563   0.31459   1.000
    O187    O    0.80872   0.86267   0.36127   1.000
    N188    N    0.99789   0.37447   0.23519   1.000
    O189    O    0.05892   0.36272   0.13862   1.000
    O190    O    0.91603   0.34462   0.18477   1.000
    O191    O    0.01756   0.29025   0.33401   1.000
    O192    O    0.00083   0.51435   0.25702   1.000
    N193    N    0.36573   0.11685   0.39247   1.000
    O194    O    0.34890   0.14055   0.51848   1.000
    O195    O    0.37799   0.97733   0.38810   1.000
    O196    O    0.29518   0.13592   0.31024   1.000
    O197    O    0.44555   0.18900   0.37652   1.000
    N198    N    0.49083   0.76444   0.39924   1.000
    O199    O    0.56633   0.84027   0.38551   1.000
    O200    O    0.49905   0.65572   0.31815   1.000
    O201    O    0.49045   0.74525   0.52644   1.000
    O202    O    0.40957   0.82907   0.37987   1.000
    N203    N    0.86564   0.11738   0.39287   1.000
    O204    O    0.84910   0.14183   0.51885   1.000
    O205    O    0.79513   0.13631   0.31045   1.000
    O206    O    0.87774   0.97769   0.38847   1.000
    O207    O    0.94559   0.18900   0.37633   1.000
loop_
    _geom_bond_atom_site_label_1
    _geom_bond_atom_site_label_2
    _geom_bond_distance
    _geom_bond_site_symmetry_2
    _ccdc_geom_bond_type
    Zr37   O40       0.86024      .   S
    Zr17   O40       0.86024      .   S
    Zr36   O41       0.85969      .   S
    Zr16   O41       0.85969      .   S
    Zr9    O42       0.86015      .   S
    Zr35   O42       0.86015      .   S
    Zr8    O43       0.86033      .   S
    Zr34   O43       0.86033      .   S
    Zr38   O44       0.85994      .   S
    Zr24   O44       0.85994      .   S
    Zr39   O45       0.85943      .   S
    Zr25   O45       0.85943      .   S
    Zr1    O46       0.85989      .   S
    Zr33   O46       0.85989      .   S
    Zr0    O47       0.85964      .   S
    Zr32   O47       0.85964      .   S
    N48    O49       1.94442      .   S
    Zr22   O49       1.31866      .   S
    N48    O50       1.88402      .   S
    Zr16   O50       1.38449      .   S
    N48    O51       1.91554      .   S
    Zr29   O51       1.31361      .   S
    N48    O52       1.91875      .   S
    Zr3    O52       1.31090      .   S
    N53    O54       1.88854      .   S
    Zr16   O54       1.35068      .   S
    N53    O55       1.92841      .   S
    Zr14   O55       1.30273      .   S
    N53    O56       1.92359      .   S
    Zr2    O56       1.30270      .   S
    N53    O57       1.91183  1_554   S
    Zr20   O57       1.31442      .   S
    N58    O59       1.92457      .   S
    Zr3    O59       1.30320      .   S
    N58    O60       1.88414      .   S
    Zr17   O60       1.35210      .   S
    N58    O61       1.91522  1_554   S
    Zr21   O61       1.31393      .   S
    N58    O62       1.92933      .   S
    Zr15   O62       1.30153      .   S
    N63    O64       1.91552  1_455   S
    Zr13   O64       1.31227      .   S
    N63    O65       1.94458      .   S
    Zr6    O65       1.31729      .   S
    N63    O66       1.92113  1_455   S
    Zr19   O66       1.31064      .   S
    N63    O67       1.88862      .   S
    Zr0    O67       1.38145      .   S
    N68    O69       1.90759  1_556   S
    Zr3    O69       1.32621      .   S
    N68    O70       1.90240      .   S
    Zr7    O70       1.32905      .   S
    N68    O71       2.00931      .   S
    Zr1    O71       1.43351      .   S
    N68    O72       1.91416      .   S
    Zr21   O72       1.32385      .   S
    N73    O74       1.93517  1_565   S
    Zr10   O74       1.32150      .   S
    N73    O75       1.93225      .   S
    Zr13   O75       1.31327  1_655   S
    N73    O76       1.94131      .   S
    Zr8    O76       1.38775      .   S
    N73    O77       1.92156      .   S
    Zr30   O77       1.31991      .   S
    N78    O79       1.92757      .   S
    Zr31   O79       1.30184      .   S
    N78    O80       1.91513  1_556   S
    Zr5    O80       1.31569      .   S
    N78    O81       1.88524      .   S
    Zr1    O81       1.34930      .   S
    N78    O82       1.92392      .   S
    Zr19   O82       1.30225      .   S
    N83    O84       1.91730      .   S
    Zr12   O84       1.31304      .   S
    N83    O85       1.94862      .   S
    Zr7    O85       1.31746      .   S
    N83    O86       1.88865      .   S
    Zr1    O86       1.38109      .   S
    N83    O87       1.91469      .   S
    Zr18   O87       1.31118      .   S
    N88    O89       1.90041      .   S
    Zr23   O89       1.33147      .   S
    N88    O90       1.91195      .   S
    Zr5    O90       1.32579      .   S
    N88    O91       2.00684      .   S
    Zr17   O91       1.43042      .   S
    N88    O92       1.90884  1_554   S
    Zr19   O92       1.32679      .   S
    N93    O94       1.93877      .   S
    Zr20   O94       1.31132      .   S
    N93    O95       1.94106      .   S
    Zr18   O95       1.32080      .   S
    N93    O96       1.91447      .   S
    Zr7    O96       1.32085      .   S
    N93    O97       1.93651  1_556   S
    Zr16   O97       1.38857      .   S
    N98    O99       1.91444      .   S
    Zr29   O99       1.31515      .   S
    N98    O100      1.92469      .   S
    Zr11   O100      1.30307      .   S
    N98    O101      1.92808      .   S
    Zr7    O101      1.30209      .   S
    N98    O102      1.88500      .   S
    Zr24   O102      1.34846      .   S
    N103   O104      1.91531      .   S
    Zr13   O104      1.31375      .   S
    N103   O105      1.92928      .   S
    Zr23   O105      1.30232      .   S
    N103   O106      1.88141  1_655   S
    Zr8    O106      1.35126      .   S
    N103   O107      1.92444      .   S
    Zr27   O107      1.30262      .   S
    N108   O109      1.91136      .   S
    Zr29   O109      1.32610      .   S
    N108   O110      1.89994      .   S
    Zr15   O110      1.33095      .   S
    N108   O111      2.00585  1_545   S
    Zr9    O111      1.42942      .   S
    N108   O112      1.90919      .   S
    Zr11   O112      1.32581      .   S
    N113   O114      1.90055      .   S
    Zr22   O114      1.33128      .   S
    N113   O115      2.00808      .   S
    Zr16   O115      1.43158      .   S
    N113   O116      1.90861  1_554   S
    Zr18   O116      1.32591      .   S
    N113   O117      1.91122      .   S
    Zr4    O117      1.32652      .   S
    N118   O119      1.93133      .   S
    Zr4    O119      1.31393      .   S
    N118   O120      1.92371      .   S
    Zr23   O120      1.31930  1_655   S
    N118   O121      1.93364      .   S
    Zr2    O121      1.32154      .   S
    N118   O122      1.93895  1_554   S
    Zr0    O122      1.38549      .   S
    N123   O124      1.92183      .   S
    Zr6    O124      1.31960  1_455   S
    N123   O125      1.93320      .   S
    Zr21   O125      1.31409      .   S
    N123   O126      1.94045  1_556   S
    Zr17   O126      1.38746      .   S
    N123   O127      1.93520      .   S
    Zr19   O127      1.32195      .   S
    N128   O129      1.92462      .   S
    Zr18   O129      1.30297      .   S
    N128   O130      1.92912      .   S
    Zr30   O130      1.30128      .   S
    N128   O131      1.91528  1_556   S
    Zr4    O131      1.31537      .   S
    N128   O132      1.88495      .   S
    Zr0    O132      1.34874      .   S
    N133   O134      1.91477      .   S
    Zr11   O134      1.31118      .   S
    N133   O135      1.91714      .   S
    Zr21   O135      1.31294      .   S
    N133   O136      1.94828  1_545   S
    Zr31   O136      1.31681      .   S
    N133   O137      1.88904      .   S
    Zr25   O137      1.38226      .   S
    N138   O139      1.92818      .   S
    Zr6    O139      1.30107      .   S
    N138   O140      1.88504  1_455   S
    Zr25   O140      1.34930      .   S
    N138   O141      1.92334      .   S
    Zr10   O141      1.30217      .   S
    N138   O142      1.91511      .   S
    Zr28   O142      1.31558      .   S
    N143   O144      1.93637      .   S
    Zr3    O144      1.32101      .   S
    N143   O145      1.92154      .   S
    Zr22   O145      1.31890      .   S
    N143   O146      1.93405      .   S
    Zr5    O146      1.31397      .   S
    N143   O147      1.93829  1_554   S
    Zr1    O147      1.38501      .   S
    N148   O149      1.93434      .   S
    Zr12   O149      1.31227      .   S
    N148   O150      1.94089      .   S
    Zr9    O150      1.38518      .   S
    N148   O151      1.94199  1_565   S
    Zr11   O151      1.32029      .   S
    N148   O152      1.91483      .   S
    Zr31   O152      1.31974      .   S
    N153   O154      1.91383      .   S
    Zr20   O154      1.32324      .   S
    N153   O155      1.90746  1_556   S
    Zr2    O155      1.32609      .   S
    N153   O156      1.90151      .   S
    Zr6    O156      1.32885      .   S
    N153   O157      2.00728      .   S
    Zr0    O157      1.43078      .   S
    N158   O159      1.90818      .   S
    Zr10   O159      1.32609      .   S
    N158   O160      1.90033      .   S
    Zr14   O160      1.33106      .   S
    N158   O161      1.91149      .   S
    Zr28   O161      1.32647      .   S
    N158   O162      2.00622  1_545   S
    Zr8    O162      1.43004      .   S
    N163   O164      1.94570  1_545   S
    Zr30   O164      1.31734      .   S
    N163   O165      1.88750      .   S
    Zr24   O165      1.37844      .   S
    N163   O166      1.92265      .   S
    Zr10   O166      1.30960      .   S
    N163   O167      1.91868      .   S
    Zr20   O167      1.31200      .   S
    N168   O169      1.90195      .   S
    Zr31   O169      1.32954      .   S
    N168   O170      1.90727      .   S
    Zr27   O170      1.32641      .   S
    N168   O171      2.00767  1_565   S
    Zr25   O171      1.43180      .   S
    N168   O172      1.91504      .   S
    Zr13   O172      1.32357      .   S
    N173   O174      1.90097      .   S
    Zr30   O174      1.32919      .   S
    N173   O175      2.00809  1_565   S
    Zr24   O175      1.43341      .   S
    N173   O176      1.90776      .   S
    Zr26   O176      1.32570      .   S
    N173   O177      1.91627      .   S
    Zr12   O177      1.32363      .   S
    N178   O179      1.94520  1_565   S
    Zr14   O179      1.31807      .   S
    N178   O180      1.91615      .   S
    Zr4    O180      1.31300      .   S
    N178   O181      1.92129      .   S
    Zr26   O181      1.30766      .   S
    N178   O182      1.89123      .   S
    Zr8    O182      1.38072      .   S
    N183   O184      1.94466  1_565   S
    Zr15   O184      1.31872      .   S
    N183   O185      1.91756      .   S
    Zr5    O185      1.31375      .   S
    N183   O186      1.89248      .   S
    Zr9    O186      1.38191      .   S
    N183   O187      1.92105      .   S
    Zr27   O187      1.30899      .   S
    N188   O189      1.92106  1_655   S
    Zr2    O189      1.30811      .   S
    N188   O190      1.89259      .   S
    Zr17   O190      1.38107      .   S
    N188   O191      1.91670  1_655   S
    Zr28   O191      1.31288      .   S
    N188   O192      1.94578  1_655   S
    Zr23   O192      1.31865  1_655   S
    N193   O194      1.93875      .   S
    Zr24   O194      1.38660      .   S
    N193   O195      1.93186  1_545   S
    Zr26   O195      1.32218      .   S
    N193   O196      1.92323      .   S
    Zr14   O196      1.32009      .   S
    N193   O197      1.93187      .   S
    Zr29   O197      1.31465      .   S
    N198   O199      1.88006      .   S
    Zr9    O199      1.35164      .   S
    N198   O200      1.92786      .   S
    Zr22   O200      1.30135      .   S
    N198   O201      1.91495      .   S
    Zr12   O201      1.31413      .   S
    N198   O202      1.92377      .   S
    Zr26   O202      1.30232      .   S
    N203   O204      1.93900      .   S
    Zr25   O204      1.38565      .   S
    N203   O205      1.92414      .   S
    Zr15   O205      1.31908      .   S
    N203   O206      1.93379  1_545   S
    Zr27   O206      1.32155      .   S
    N203   O207      1.93170      .   S
    Zr28   O207      1.31417  1_455   S
