# CIF file generated by openbabel 2.4.90, see http://openbabel.sf.net
data_I
_chemical_name_common ''
_cell_length_a 20.649
_cell_length_b 13.709
_cell_length_c 14.912
_cell_angle_alpha 89.983
_cell_angle_beta 90
_cell_angle_gamma 90.33
_space_group_name_H-M_alt 'P 1'
_space_group_name_Hall 'P 1'
loop_
    _symmetry_equiv_pos_as_xyz
    x,y,z
loop_
    _atom_site_label
    _atom_site_type_symbol
    _atom_site_fract_x
    _atom_site_fract_y
    _atom_site_fract_z
    _atom_site_occupancy
    N0      N    0.49747   0.37500   0.23600   1.000
    N1      N    0.24065   0.26414   0.10077   1.000
    N2      N    0.74015   0.26481   0.10106   1.000
    N3      N    0.00391   0.62479   0.76441   1.000
    N4      N    0.62111   0.40874   0.88868   1.000
    N5      N    0.13544   0.88299   0.60795   1.000
    N6      N    0.76084   0.73568   0.89937   1.000
    N7      N    0.50351   0.62482   0.76504   1.000
    N8      N    0.87988   0.59044   0.11146   1.000
    N9      N    0.38651   0.38238   0.89376   1.000
    N10     N    0.51082   0.23570   0.60065   1.000
    N11     N    0.99079   0.76450   0.39902   1.000
    N12     N    0.62983   0.09063   0.38850   1.000
    N13     N    0.37987   0.59055   0.11168   1.000
    N14     N    0.11564   0.61763   0.10713   1.000
    N15     N    0.88529   0.38281   0.89228   1.000
    N16     N    0.26091   0.73560   0.89947   1.000
    N17     N    0.75349   0.12481   0.73503   1.000
    N18     N    0.01086   0.23561   0.60059   1.000
    N19     N    0.61520   0.61722   0.10700   1.000
    N20     N    0.63595   0.88230   0.60740   1.000
    N21     N    0.12112   0.40958   0.88865   1.000
    N22     N    0.12986   0.09049   0.38861   1.000
    N23     N    0.25415   0.12556   0.73532   1.000
    N24     N    0.87118   0.90912   0.61137   1.000
    N25     N    0.37108   0.90935   0.61149   1.000
    N26     N    0.24782   0.87439   0.26480   1.000
    N27     N    0.74792   0.87482   0.26445   1.000
    N28     N    0.99789   0.37447   0.23519   1.000
    N29     N    0.36573   0.11685   0.39247   1.000
    N30     N    0.49083   0.76444   0.39924   1.000
    N31     N    0.86564   0.11738   0.39287   1.000
    Zr32    Zr   0.86204   0.88563   0.40400   1.000
    O33     O    0.88588   0.85771   0.39182   1.000
    O34     O    0.85562   0.88110   0.44738   1.000
    O35     O    0.83538   0.87415   0.38263   1.000
    O36     O    0.86989   0.93166   0.39623   1.000
    Zr37    Zr   0.38993   0.27880   0.10021   1.000
    O38     O    0.35360   0.30873   0.10706   1.000
    O39     O    0.38741   0.36156   0.10565   1.000
    O40     O    0.40270   0.31245   0.14362   1.000
    O41     O    0.39672   0.31834   0.05983   1.000
    Zr42    Zr   0.49689   0.60935   0.24206   1.000
    O43     O    0.52095   0.62313   0.21580   1.000
    O44     O    0.49904   0.56210   0.24967   1.000
    O45     O    0.49797   0.63254   0.28010   1.000
    O46     O    0.46889   0.61826   0.22159   1.000
    Zr47    Zr   0.11224   0.38588   0.09608   1.000
    O48     O    0.12004   0.43192   0.10381   1.000
    O49     O    0.08558   0.37430   0.11735   1.000
    O50     O    0.13617   0.35818   0.10841   1.000
    O51     O    0.10576   0.38149   0.05272   1.000
    Zr52    Zr   0.50365   0.38969   0.75860   1.000
    O53     O    0.50127   0.43706   0.75203   1.000
    O54     O    0.53164   0.38113   0.77906   1.000
    O55     O    0.50330   0.36704   0.72023   1.000
    O56     O    0.47952   0.37507   0.78448   1.000
    Zr57    Zr   0.25422   0.89110   0.74239   1.000
    O58     O    0.28197   0.88201   0.72150   1.000
    O59     O    0.25256   0.93839   0.74976   1.000
    O60     O    0.25369   0.86790   0.78046   1.000
    O61     O    0.22990   0.87736   0.71650   1.000
    Zr62    Zr   0.99641   0.77909   0.60824   1.000
    O63     O    0.02582   0.79544   0.61607   1.000
    O64     O    0.99332   0.76218   0.56724   1.000
    O65     O    0.99031   0.74376   0.63677   1.000
    O66     O    0.97577   0.81522   0.61445   1.000
    Zr67    Zr   0.25495   0.72005   0.10865   1.000
    O68     O    0.26127   0.75509   0.13740   1.000
    O69     O    0.27528   0.68337   0.11476   1.000
    O70     O    0.22526   0.70463   0.11619   1.000
    O71     O    0.25838   0.73715   0.06770   1.000
    Zr72    Zr   0.24625   0.27966   0.89214   1.000
    O73     O    0.24035   0.24464   0.86325   1.000
    O74     O    0.24265   0.26239   0.93296   1.000
    O75     O    0.27567   0.29641   0.88549   1.000
    O76     O    0.22565   0.31580   0.88578   1.000
    Zr77    Zr   0.00417   0.39040   0.75796   1.000
    O78     O    0.00360   0.36744   0.71980   1.000
    O79     O    0.00245   0.43767   0.75048   1.000
    O80     O    0.03196   0.38154   0.77881   1.000
    O81     O    0.97984   0.37679   0.78388   1.000
    Zr82    Zr   0.13824   0.77890   0.40220   1.000
    O83     O    0.10242   0.80939   0.39391   1.000
    O84     O    0.13647   0.86164   0.39581   1.000
    O85     O    0.14509   0.81857   0.44203   1.000
    O86     O    0.15213   0.81179   0.35871   1.000
    Zr87    Zr   0.75479   0.71983   0.10852   1.000
    O88     O    0.72524   0.70379   0.11605   1.000
    O89     O    0.76108   0.75503   0.13715   1.000
    O90     O    0.77522   0.68331   0.11465   1.000
    O91     O    0.75821   0.73701   0.06759   1.000
    Zr92    Zr   0.63811   0.77893   0.40002   1.000
    O93     O    0.64493   0.81806   0.44062   1.000
    O94     O    0.63637   0.86173   0.39461   1.000
    O95     O    0.60222   0.80960   0.39276   1.000
    O96     O    0.65199   0.81228   0.35730   1.000
    Zr97    Zr   0.86237   0.22106   0.59991   1.000
    O98     O    0.89846   0.19100   0.60708   1.000
    O99     O    0.85573   0.18145   0.55938   1.000
    O100    O    0.86492   0.13825   0.60550   1.000
    O101    O    0.84906   0.18708   0.64281   1.000
    Zr102   Zr   0.74680   0.10915   0.25808   1.000
    O103    O    0.74761   0.13251   0.22010   1.000
    O104    O    0.71884   0.11813   0.27857   1.000
    O105    O    0.74893   0.06190   0.25043   1.000
    O106    O    0.77096   0.12273   0.28426   1.000
    Zr107   Zr   0.88812   0.27882   0.09789   1.000
    O108    O    0.90208   0.31172   0.14133   1.000
    O109    O    0.88634   0.36154   0.10436   1.000
    O110    O    0.89497   0.31860   0.05813   1.000
    O111    O    0.85224   0.30926   0.10605   1.000
    Zr112   Zr   0.11238   0.72140   0.90014   1.000
    O113    O    0.11486   0.63863   0.89443   1.000
    O114    O    0.14845   0.69129   0.89295   1.000
    O115    O    0.10574   0.68180   0.94065   1.000
    O116    O    0.09906   0.68796   0.85721   1.000
    Zr117   Zr   0.39022   0.61562   0.90438   1.000
    O118    O    0.39605   0.62028   0.94789   1.000
    O119    O    0.41676   0.62797   0.88297   1.000
    O120    O    0.36596   0.64265   0.89201   1.000
    O121    O    0.38338   0.56930   0.89646   1.000
    Zr122   Zr   0.88971   0.61494   0.90400   1.000
    O123    O    0.89572   0.61962   0.94749   1.000
    O124    O    0.88197   0.56888   0.89612   1.000
    O125    O    0.91645   0.62624   0.88263   1.000
    O126    O    0.86567   0.64242   0.89173   1.000
    Zr127   Zr   0.50490   0.22011   0.39159   1.000
    O128    O    0.51124   0.25530   0.36296   1.000
    O129    O    0.50833   0.23725   0.43251   1.000
    O130    O    0.47522   0.20455   0.38406   1.000
    O131    O    0.52525   0.18348   0.38542   1.000
    Zr132   Zr   0.61238   0.72098   0.90003   1.000
    O133    O    0.64847   0.69095   0.89286   1.000
    O134    O    0.60567   0.68156   0.94055   1.000
    O135    O    0.59908   0.68695   0.85717   1.000
    O136    O    0.61491   0.63807   0.89466   1.000
    Zr137   Zr   0.64012   0.11564   0.59581   1.000
    O138    O    0.64595   0.12036   0.55231   1.000
    O139    O    0.66668   0.12796   0.61717   1.000
    O140    O    0.61584   0.14266   0.60816   1.000
    O141    O    0.63326   0.06935   0.60379   1.000
    Zr142   Zr   0.36209   0.88538   0.40406   1.000
    O143    O    0.35560   0.88120   0.44743   1.000
    O144    O    0.38583   0.85723   0.39196   1.000
    O145    O    0.37004   0.93136   0.39608   1.000
    O146    O    0.33541   0.87399   0.38280   1.000
    Zr147   Zr   0.99684   0.60891   0.24194   1.000
    O148    O    0.02098   0.62260   0.21574   1.000
    O149    O    0.96889   0.61797   0.22140   1.000
    O150    O    0.99786   0.63226   0.27994   1.000
    O151    O    0.99884   0.56163   0.24948   1.000
    Zr152   Zr   0.49642   0.77914   0.60847   1.000
    O153    O    0.49343   0.76219   0.56746   1.000
    O154    O    0.52564   0.79620   0.61621   1.000
    O155    O    0.49051   0.74344   0.63672   1.000
    O156    O    0.47571   0.81519   0.61461   1.000
    Zr157   Zr   0.13977   0.11511   0.59590   1.000
    O158    O    0.16649   0.12644   0.61722   1.000
    O159    O    0.11570   0.14249   0.60823   1.000
    O160    O    0.14574   0.11987   0.55243   1.000
    O161    O    0.13205   0.06905   0.60377   1.000
    Zr162   Zr   0.00493   0.22004   0.39141   1.000
    O163    O    0.97526   0.20452   0.38387   1.000
    O164    O    0.01124   0.25514   0.36271   1.000
    O165    O    0.02528   0.18339   0.38532   1.000
    O166    O    0.00834   0.23714   0.43236   1.000
    Zr167   Zr   0.36234   0.22125   0.59767   1.000
    O168    O    0.36491   0.13847   0.60442   1.000
    O169    O    0.35562   0.18090   0.55807   1.000
    O170    O    0.39836   0.19128   0.60589   1.000
    O171    O    0.34906   0.18827   0.64132   1.000
    Zr172   Zr   0.24673   0.10871   0.25800   1.000
    O173    O    0.21881   0.11784   0.27857   1.000
    O174    O    0.27096   0.12231   0.28412   1.000
    O175    O    0.24875   0.06147   0.25043   1.000
    O176    O    0.24768   0.13200   0.21994   1.000
    Zr177   Zr   0.74621   0.27871   0.89183   1.000
    O178    O    0.72563   0.31490   0.88550   1.000
    O179    O    0.74268   0.26203   0.93286   1.000
    O180    O    0.74033   0.24309   0.86350   1.000
    O181    O    0.77565   0.29506   0.88410   1.000
    Zr182   Zr   0.75379   0.88974   0.74148   1.000
    O183    O    0.72970   0.87519   0.71557   1.000
    O184    O    0.78176   0.88115   0.72095   1.000
    O185    O    0.75140   0.93708   0.74805   1.000
    O186    O    0.75337   0.86708   0.77984   1.000
    Zr187   Zr   0.61094   0.38488   0.09596   1.000
    O188    O    0.63504   0.35751   0.10834   1.000
    O189    O    0.61852   0.43099   0.10370   1.000
    O190    O    0.58412   0.37353   0.11714   1.000
    O191    O    0.60490   0.38013   0.05250   1.000
loop_
    _geom_bond_atom_site_label_1
    _geom_bond_atom_site_label_2
    _geom_bond_distance
    _geom_bond_site_symmetry_2
    _ccdc_geom_bond_type
    Zr32   O33       0.65131      .   S
    N11    O33       2.52366      .   S
    Zr32   O34       0.66321      .   S
    N24    O34       2.49595      .   S
    Zr32   O35       0.65450      .   S
    N27    O35       2.52337      .   S
    Zr32   O36       0.66078      .   S
    N31    O36       2.54848  1_545   S
    Zr37   O38       0.86326      .   S
    N1     O38       2.40955      .   S
    Zr37   O39       1.13890      .   S
    N13    O39       3.14533      .   S
    Zr37   O40       0.83678      .   S
    N0     O40       2.53842      .   S
    Zr37   O41       0.82143      .   S
    N9     O41       2.63606  1_556   S
    Zr42   O43       0.65945      .   S
    N19    O43       2.53534      .   S
    Zr42   O44       0.65933      .   S
    N0     O44       2.57309      .   S
    Zr42   O45       0.65067      .   S
    N30    O45       2.54025      .   S
    Zr42   O46       0.66564      .   S
    N13    O46       2.49039      .   S
    Zr47   O48       0.66077      .   S
    N14    O48       2.54846      .   S
    Zr47   O49       0.65405      .   S
    N28    O49       2.52323  1_655   S
    Zr47   O50       0.65135      .   S
    N1     O50       2.52223      .   S
    Zr47   O51       0.66304      .   S
    N21    O51       2.49649  1_556   S
    Zr52   O53       0.65873      .   S
    N7     O53       2.58154      .   S
    Zr52   O54       0.66452      .   S
    N4     O54       2.49426      .   S
    Zr52   O55       0.65104      .   S
    N10    O55       2.53995      .   S
    Zr52   O56       0.66043      .   S
    N9     O56       2.52120      .   S
    Zr57   O58       0.66459      .   S
    N25    O58       2.49188      .   S
    Zr57   O59       0.65867      .   S
    N23    O59       2.57492  1_545   S
    Zr57   O60       0.65064      .   S
    N16    O60       2.54218      .   S
    Zr57   O61       0.65996      .   S
    N5     O61       2.53628      .   S
    Zr62   O63       0.65663  1_655   S
    N5     O63       2.55882      .   S
    Zr62   O64       0.65687      .   S
    N11    O64       2.50925      .   S
    Zr62   O65       0.65613      .   S
    N3     O65       2.52293  1_455   S
    Zr62   O66       0.66178      .   S
    N24    O66       2.52102      .   S
    Zr67   O68       0.65650      .   S
    N26    O68       2.52352      .   S
    Zr67   O69       0.66326      .   S
    N13    O69       2.51329      .   S
    Zr67   O70       0.65696      .   S
    N14    O70       2.55609      .   S
    Zr67   O71       0.65769      .   S
    N16    O71       2.50929  1_556   S
    Zr72   O73       0.65600      .   S
    N23    O73       2.52841      .   S
    Zr72   O74       0.65721      .   S
    N1     O74       2.50281  1_554   S
    Zr72   O75       0.65566      .   S
    N9     O75       2.57136      .   S
    Zr72   O76       0.66162      .   S
    N21    O76       2.51901      .   S
    Zr77   O78       0.65053      .   S
    N18    O78       2.54040      .   S
    Zr77   O79       0.65864      .   S
    N3     O79       2.57377      .   S
    Zr77   O80       0.66442      .   S
    N21    O80       2.49247      .   S
    Zr77   O81       0.65980  1_455   S
    N15    O81       2.53659      .   S
    Zr82   O83       0.86045      .   S
    N11    O83       2.38358  1_655   S
    Zr82   O84       1.13899      .   S
    N22    O84       3.14291  1_545   S
    Zr82   O85       0.81723      .   S
    N5     O85       2.63533      .   S
    Zr82   O86       0.83924      .   S
    N26    O86       2.56553      .   S
    Zr87   O88       0.65699      .   S
    N19    O88       2.56104      .   S
    Zr87   O89       0.65687      .   S
    N27    O89       2.52610      .   S
    Zr87   O90       0.66289      .   S
    N8     O90       2.51484      .   S
    Zr87   O91       0.65784      .   S
    N6     O91       2.50914  1_556   S
    Zr92   O93       0.82067      .   S
    N20    O93       2.64548      .   S
    Zr92   O94       1.13877      .   S
    N12    O94       3.14293  1_545   S
    Zr92   O95       0.86096      .   S
    N30    O95       2.38052      .   S
    Zr92   O96       0.83385      .   S
    N27    O96       2.56044      .   S
    Zr97   O98       0.86035      .   S
    N18    O98       2.39863  1_455   S
    Zr97   O99       0.82364      .   S
    N31    O99       2.64231      .   S
    Zr97   O100      1.13985      .   S
    N24    O100      3.14566  1_565   S
    Zr97   O101      0.83677      .   S
    N17    O101      2.54837      .   S
    Zr102  O103      0.65077      .   S
    N2     O103      2.54273      .   S
    Zr102  O104      0.66548      .   S
    N12    O104      2.48975      .   S
    Zr102  O105      0.65936      .   S
    N27    O105      2.57308  1_565   S
    Zr102  O106      0.65954      .   S
    N31    O106      2.54004      .   S
    Zr107  O108      0.83952      .   S
    N28    O108      2.56791      .   S
    Zr107  O109      1.13900      .   S
    N8     O109      3.14343      .   S
    Zr107  O110      0.81720      .   S
    N15    O110      2.63292  1_556   S
    Zr107  O111      0.86112      .   S
    N2     O111      2.39119      .   S
    Zr112  O113      1.13942      .   S
    N21    O113      3.14468      .   S
    Zr112  O114      0.86027      .   S
    N16    O114      2.39903      .   S
    Zr112  O115      0.82317      .   S
    N14    O115      2.64188  1_554   S
    Zr112  O116      0.83326      .   S
    N3     O116      2.55077      .   S
    Zr117  O118      0.66296      .   S
    N13    O118      2.49820  1_554   S
    Zr117  O119      0.65559      .   S
    N7     O119      2.51087      .   S
    Zr117  O120      0.65148      .   S
    N16    O120      2.52443      .   S
    Zr117  O121      0.66040      .   S
    N9     O121      2.56394      .   S
    Zr122  O123      0.66339      .   S
    N8     O123      2.49867  1_554   S
    Zr122  O124      0.66098      .   S
    N15    O124      2.55282      .   S
    Zr122  O125      0.65532      .   S
    N3     O125      2.52390  1_455   S
    Zr122  O126      0.65113      .   S
    N6     O126      2.52286      .   S
    Zr127  O128      0.65681      .   S
    N0     O128      2.52222      .   S
    Zr127  O129      0.65758      .   S
    N10    O129      2.50797      .   S
    Zr127  O130      0.65733      .   S
    N29    O130      2.55761      .   S
    Zr127  O131      0.66305      .   S
    N12    O131      2.51340      .   S
    Zr132  O133      0.86010      .   S
    N6     O133      2.39850      .   S
    Zr132  O134      0.82168      .   S
    N19    O134      2.64170  1_554   S
    Zr132  O135      0.83680      .   S
    N7     O135      2.54734      .   S
    Zr132  O136      1.14085      .   S
    N4     O136      3.14856      .   S
    Zr137  O138      0.66291      .   S
    N12    O138      2.49854      .   S
    Zr137  O139      0.65559      .   S
    N17    O139      2.51096      .   S
    Zr137  O140      0.65153      .   S
    N10    O140      2.52468      .   S
    Zr137  O141      0.66015      .   S
    N20    O141      2.56572  1_565   S
    Zr142  O143      0.66285      .   S
    N25    O143      2.49709      .   S
    Zr142  O144      0.65116      .   S
    N30    O144      2.52231      .   S
    Zr142  O145      0.66109      .   S
    N29    O145      2.54549  1_545   S
    Zr142  O146      0.65383      .   S
    N26    O146      2.52343      .   S
    Zr147  O148      0.65965  1_655   S
    N14    O148      2.53966      .   S
    Zr147  O149      0.66573      .   S
    N8     O149      2.49015      .   S
    Zr147  O150      0.65116      .   S
    N11    O150      2.54282      .   S
    Zr147  O151      0.65933      .   S
    N28    O151      2.57467      .   S
    Zr152  O153      0.65707      .   S
    N30    O153      2.50920      .   S
    Zr152  O154      0.65614      .   S
    N20    O154      2.56269      .   S
    Zr152  O155      0.65652      .   S
    N7     O155      2.52614      .   S
    Zr152  O156      0.66181      .   S
    N25    O156      2.52349      .   S
    Zr157  O158      0.65480      .   S
    N23    O158      2.52558      .   S
    Zr157  O159      0.65108      .   S
    N18    O159      2.52198      .   S
    Zr157  O160      0.66304      .   S
    N22    O160      2.49724      .   S
    Zr157  O161      0.66075      .   S
    N5     O161      2.55287  1_565   S
    Zr162  O163      0.65709  1_455   S
    N31    O163      2.55683      .   S
    Zr162  O164      0.65644      .   S
    N28    O164      2.52410  1_655   S
    Zr162  O165      0.66323      .   S
    N22    O165      2.51379      .   S
    Zr162  O166      0.65779      .   S
    N18    O166      2.50927      .   S
    Zr167  O168      1.14075      .   S
    N25    O168      3.14610  1_565   S
    Zr167  O169      0.82047      .   S
    N29    O169      2.62985      .   S
    Zr167  O170      0.86053      .   S
    N10    O170      2.39859      .   S
    Zr167  O171      0.83773      .   S
    N23    O171      2.55429      .   S
    Zr172  O173      0.66553      .   S
    N22    O173      2.48975      .   S
    Zr172  O174      0.66004      .   S
    N29    O174      2.53931      .   S
    Zr172  O175      0.65904      .   S
    N26    O175      2.57345  1_565   S
    Zr172  O176      0.65136      .   S
    N1     O176      2.54201      .   S
    Zr177  O178      0.66192      .   S
    N4     O178      2.51922      .   S
    Zr177  O179      0.65696      .   S
    N2     O179      2.50907  1_554   S
    Zr177  O180      0.65647      .   S
    N17    O180      2.52598      .   S
    Zr177  O181      0.65705      .   S
    N15    O181      2.56037      .   S
    Zr182  O183      0.65987      .   S
    N20    O183      2.52210      .   S
    Zr182  O184      0.66477      .   S
    N24    O184      2.49368      .   S
    Zr182  O185      0.65841      .   S
    N17    O185      2.58095  1_545   S
    Zr182  O186      0.65092      .   S
    N6     O186      2.53912      .   S
    Zr187  O188      0.65160      .   S
    N2     O188      2.52383      .   S
    Zr187  O189      0.66051      .   S
    N19    O189      2.55473      .   S
    Zr187  O190      0.65545      .   S
    N0     O190      2.51871      .   S
    Zr187  O191      0.66310      .   S
    N4     O191      2.49632  1_556   S
