# CIF file generated by openbabel 2.4.90, see http://openbabel.sf.net
data_I
_chemical_name_common ''
_cell_length_a 20.649
_cell_length_b 13.709
_cell_length_c 14.912
_cell_angle_alpha 89.983
_cell_angle_beta 90
_cell_angle_gamma 90.33
_space_group_name_H-M_alt 'P 1'
_space_group_name_Hall 'P 1'
loop_
    _symmetry_equiv_pos_as_xyz
    x,y,z
loop_
    _atom_site_label
    _atom_site_type_symbol
    _atom_site_fract_x
    _atom_site_fract_y
    _atom_site_fract_z
    _atom_site_occupancy
    C0      C    0.11948   0.66002   0.89414   1.000
    C1      C    0.61950   0.65958   0.89408   1.000
    C2      C    0.11224   0.38588   0.09608   1.000
    C3      C    0.61094   0.38488   0.09596   1.000
    C4      C    0.25495   0.72005   0.10865   1.000
    C5      C    0.75479   0.71983   0.10852   1.000
    C6      C    0.00417   0.39040   0.75796   1.000
    C7      C    0.50365   0.38969   0.75860   1.000
    C8      C    0.13173   0.84028   0.39463   1.000
    C9      C    0.63151   0.84047   0.39398   1.000
    C10     C    0.13977   0.11511   0.59590   1.000
    C11     C    0.64012   0.11564   0.59581   1.000
    C12     C    0.49642   0.77914   0.60847   1.000
    C13     C    0.99641   0.77909   0.60824   1.000
    C14     C    0.24673   0.10871   0.25800   1.000
    C15     C    0.74680   0.10915   0.25808   1.000
    C16     C    0.38245   0.34006   0.10640   1.000
    C17     C    0.88154   0.34016   0.10552   1.000
    C18     C    0.39022   0.61562   0.90438   1.000
    C19     C    0.88971   0.61494   0.90400   1.000
    C20     C    0.24625   0.27966   0.89214   1.000
    C21     C    0.74621   0.27871   0.89183   1.000
    C22     C    0.49689   0.60935   0.24206   1.000
    C23     C    0.99684   0.60891   0.24194   1.000
    C24     C    0.36939   0.16003   0.60522   1.000
    C25     C    0.86949   0.15969   0.60586   1.000
    C26     C    0.36209   0.88538   0.40406   1.000
    C27     C    0.86204   0.88563   0.40400   1.000
    C28     C    0.00493   0.22004   0.39141   1.000
    C29     C    0.50490   0.22011   0.39159   1.000
    C30     C    0.25422   0.89110   0.74239   1.000
    C31     C    0.75379   0.88974   0.74148   1.000
    C32     C    0.11564   0.61763   0.10713   1.000
    C33     C    0.61520   0.61722   0.10700   1.000
    C34     C    0.12112   0.40958   0.88865   1.000
    C35     C    0.62111   0.40874   0.88868   1.000
    C36     C    0.26091   0.73560   0.89947   1.000
    C37     C    0.76084   0.73568   0.89937   1.000
    C38     C    0.00391   0.62479   0.76441   1.000
    C39     C    0.50351   0.62482   0.76504   1.000
    C40     C    0.13544   0.88299   0.60795   1.000
    C41     C    0.63595   0.88230   0.60740   1.000
    C42     C    0.12986   0.09049   0.38861   1.000
    C43     C    0.62983   0.09063   0.38850   1.000
    C44     C    0.49083   0.76444   0.39924   1.000
    C45     C    0.99079   0.76450   0.39902   1.000
    C46     C    0.24782   0.87439   0.26480   1.000
    C47     C    0.74792   0.87482   0.26445   1.000
    C48     C    0.38651   0.38238   0.89376   1.000
    C49     C    0.88529   0.38281   0.89228   1.000
    C50     C    0.37987   0.59055   0.11168   1.000
    C51     C    0.87988   0.59044   0.11146   1.000
    C52     C    0.24065   0.26414   0.10077   1.000
    C53     C    0.74015   0.26481   0.10106   1.000
    C54     C    0.49747   0.37500   0.23600   1.000
    C55     C    0.99789   0.37447   0.23519   1.000
    C56     C    0.36573   0.11685   0.39247   1.000
    C57     C    0.86564   0.11738   0.39287   1.000
    C58     C    0.37108   0.90935   0.61149   1.000
    C59     C    0.87118   0.90912   0.61137   1.000
    C60     C    0.01086   0.23561   0.60059   1.000
    C61     C    0.51082   0.23570   0.60065   1.000
    C62     C    0.25415   0.12556   0.73532   1.000
    C63     C    0.75349   0.12481   0.73503   1.000
    C64     C    0.07827   0.36678   0.81357   1.000
    C65     C    0.57828   0.36685   0.81315   1.000
    C66     C    0.09496   0.37418   0.98044   1.000
    C67     C    0.59484   0.37220   0.98007   1.000
    C68     C    0.11664   0.52113   0.88691   1.000
    C69     C    0.61675   0.52037   0.88770   1.000
    C70     C    0.20619   0.66156   0.88298   1.000
    C71     C    0.70625   0.66138   0.88289   1.000
    C72     C    0.25280   0.82924   0.84390   1.000
    C73     C    0.75268   0.82932   0.84378   1.000
    C74     C    0.26409   0.76564   0.99945   1.000
    C75     C    0.76392   0.76565   0.99937   1.000
    C76     C    0.32552   0.68770   0.87138   1.000
    C77     C    0.82560   0.68822   0.87128   1.000
    C78     C    0.46099   0.64855   0.84729   1.000
    C79     C    0.96101   0.64507   0.84700   1.000
    C80     C    0.49730   0.51599   0.74109   1.000
    C81     C    0.99959   0.51645   0.73800   1.000
    C82     C    0.48065   0.68394   0.68379   1.000
    C83     C    0.98014   0.68490   0.68432   1.000
    C84     C    0.07450   0.65268   0.78766   1.000
    C85     C    0.57454   0.65070   0.78772   1.000
    C86     C    0.13305   0.50867   0.11670   1.000
    C87     C    0.63115   0.50784   0.11661   1.000
    C88     C    0.09230   0.63624   0.01017   1.000
    C89     C    0.59211   0.63634   0.01006   1.000
    C90     C    0.06121   0.64541   0.17208   1.000
    C91     C    0.56107   0.64608   0.17203   1.000
    C92     C    0.17578   0.67893   0.12875   1.000
    C93     C    0.67599   0.67707   0.12860   1.000
    C94     C    0.19132   0.37603   0.87519   1.000
    C95     C    0.69132   0.37523   0.87496   1.000
    C96     C    0.17228   0.13307   0.31284   1.000
    C97     C    0.67222   0.13309   0.31273   1.000
    C98     C    0.15569   0.12781   0.47997   1.000
    C99     C    0.65568   0.12822   0.47980   1.000
    C100    C    0.13569   0.97907   0.38769   1.000
    C101    C    0.63567   0.97922   0.38760   1.000
    C102    C    0.04490   0.83973   0.38262   1.000
    C103    C    0.54461   0.84020   0.38268   1.000
    C104    C    0.49977   0.67118   0.34351   1.000
    C105    C    0.99957   0.67118   0.34327   1.000
    C106    C    0.48846   0.73395   0.49910   1.000
    C107    C    0.98817   0.73400   0.49891   1.000
    C108    C    0.42539   0.81030   0.37180   1.000
    C109    C    0.92563   0.81117   0.37152   1.000
    C110    C    0.29094   0.85499   0.34737   1.000
    C111    C    0.79095   0.85501   0.34702   1.000
    C112    C    0.25212   0.98273   0.23780   1.000
    C113    C    0.75247   0.98316   0.23769   1.000
    C114    C    0.27182   0.81350   0.18531   1.000
    C115    C    0.77155   0.81371   0.18487   1.000
    C116    C    0.17744   0.84614   0.28876   1.000
    C117    C    0.67733   0.84735   0.28812   1.000
    C118    C    0.11918   0.99230   0.61689   1.000
    C119    C    0.62182   0.99221   0.61708   1.000
    C120    C    0.15869   0.86422   0.51093   1.000
    C121    C    0.65849   0.86277   0.51030   1.000
    C122    C    0.18938   0.85447   0.67336   1.000
    C123    C    0.68954   0.85095   0.67239   1.000
    C124    C    0.07484   0.82270   0.62912   1.000
    C125    C    0.57435   0.82463   0.62912   1.000
    C126    C    0.05922   0.12231   0.37517   1.000
    C127    C    0.55917   0.12244   0.37513   1.000
    C128    C    0.42223   0.63312   0.18748   1.000
    C129    C    0.92230   0.63307   0.18716   1.000
    C130    C    0.40577   0.62804   0.02041   1.000
    C131    C    0.90573   0.62743   0.01998   1.000
    C132    C    0.38569   0.47906   0.11267   1.000
    C133    C    0.88557   0.47897   0.11259   1.000
    C134    C    0.29554   0.33819   0.11643   1.000
    C135    C    0.79463   0.33954   0.11710   1.000
    C136    C    0.24927   0.17081   0.15650   1.000
    C137    C    0.74896   0.17144   0.15679   1.000
    C138    C    0.23664   0.23359   0.00100   1.000
    C139    C    0.73681   0.23424   0.00124   1.000
    C140    C    0.17605   0.31201   0.12897   1.000
    C141    C    0.67520   0.31188   0.12896   1.000
    C142    C    0.04115   0.35500   0.15280   1.000
    C143    C    0.53943   0.35462   0.15245   1.000
    C144    C    0.00217   0.48283   0.26204   1.000
    C145    C    0.50264   0.48335   0.26234   1.000
    C146    C    0.02177   0.31365   0.31487   1.000
    C147    C    0.52182   0.31396   0.31524   1.000
    C148    C    0.42647   0.34812   0.21391   1.000
    C149    C    0.92753   0.34611   0.21119   1.000
    C150    C    0.37199   0.49210   0.88327   1.000
    C151    C    0.86907   0.49212   0.88298   1.000
    C152    C    0.41051   0.36380   0.99047   1.000
    C153    C    0.90858   0.36446   0.98933   1.000
    C154    C    0.43931   0.35070   0.82762   1.000
    C155    C    0.93930   0.35410   0.82707   1.000
    C156    C    0.32470   0.32433   0.87441   1.000
    C157    C    0.82473   0.32231   0.87121   1.000
    C158    C    0.30918   0.62224   0.12494   1.000
    C159    C    0.80928   0.62245   0.12486   1.000
    C160    C    0.32821   0.86685   0.68668   1.000
    C161    C    0.82837   0.86683   0.68673   1.000
    C162    C    0.34479   0.87422   0.51971   1.000
    C163    C    0.84492   0.87356   0.51969   1.000
    C164    C    0.36683   0.02092   0.61317   1.000
    C165    C    0.86679   0.02068   0.61282   1.000
    C166    C    0.45604   0.16173   0.61708   1.000
    C167    C    0.95624   0.16134   0.61705   1.000
    C168    C    0.00265   0.32916   0.65619   1.000
    C169    C    0.50272   0.32930   0.65629   1.000
    C170    C    0.01402   0.26564   0.50061   1.000
    C171    C    0.51406   0.26581   0.50070   1.000
    C172    C    0.07559   0.18814   0.62877   1.000
    C173    C    0.57539   0.18769   0.62875   1.000
    C174    C    0.21104   0.14532   0.65274   1.000
    C175    C    0.71095   0.14850   0.65277   1.000
    C176    C    0.24979   0.01721   0.76204   1.000
    C177    C    0.74743   0.01597   0.75899   1.000
    C178    C    0.23052   0.18627   0.81511   1.000
    C179    C    0.73053   0.18374   0.81629   1.000
    C180    C    0.32458   0.15372   0.71157   1.000
    C181    C    0.82450   0.15089   0.71232   1.000
    C182    C    0.38329   0.00798   0.38278   1.000
    C183    C    0.88297   0.00837   0.38329   1.000
    C184    C    0.34206   0.13405   0.48956   1.000
    C185    C    0.84230   0.13588   0.48984   1.000
    C186    C    0.31133   0.14499   0.32765   1.000
    C187    C    0.81123   0.14536   0.32790   1.000
    C188    C    0.42576   0.17863   0.37150   1.000
    C189    C    0.92581   0.17866   0.37130   1.000
    C190    C    0.44119   0.87527   0.62485   1.000
    C191    C    0.94138   0.87544   0.62479   1.000
    C192    C    0.10529   0.78278   0.90613   1.000
    C193    C    0.60527   0.78237   0.90598   1.000
    C194    C    0.14475   0.71752   0.40976   1.000
    C195    C    0.64471   0.71738   0.40606   1.000
    C196    C    0.39742   0.21755   0.09401   1.000
    C197    C    0.89471   0.21748   0.09026   1.000
    C198    C    0.35529   0.28246   0.59011   1.000
    C199    C    0.85525   0.28243   0.59396   1.000
    O200    O    0.23864   0.24887   0.05089   1.000
    O201    O    0.24144   0.25663   0.94657   1.000
    O202    O    0.73848   0.24952   0.05115   1.000
    O203    O    0.74151   0.25647   0.94654   1.000
    O204    O    0.60365   0.62678   0.05853   1.000
    O205    O    0.60580   0.64796   0.95207   1.000
    O206    O    0.10397   0.62693   0.05865   1.000
    O207    O    0.10589   0.64813   0.95216   1.000
    O208    O    0.89281   0.60894   0.06572   1.000
    O209    O    0.89772   0.62118   0.96199   1.000
    O210    O    0.39282   0.60929   0.06605   1.000
    O211    O    0.39799   0.62183   0.96240   1.000
    O212    O    0.88812   0.27882   0.09789   1.000
    O213    O    0.38993   0.27880   0.10021   1.000
    O214    O    0.62104   0.44636   0.10629   1.000
    O215    O    0.64307   0.34838   0.11246   1.000
    O216    O    0.57518   0.36975   0.12421   1.000
    O217    O    0.60289   0.37854   0.03802   1.000
    O218    O    0.12265   0.44727   0.10639   1.000
    O219    O    0.14414   0.34894   0.11253   1.000
    O220    O    0.07670   0.37044   0.12444   1.000
    O221    O    0.10360   0.38003   0.03826   1.000
    O222    O    0.26809   0.30117   0.10860   1.000
    O223    O    0.20835   0.28808   0.11487   1.000
    O224    O    0.24496   0.21747   0.12864   1.000
    O225    O    0.76739   0.30217   0.10908   1.000
    O226    O    0.70767   0.28834   0.11501   1.000
    O227    O    0.74456   0.21813   0.12893   1.000
    O228    O    0.88355   0.40957   0.10906   1.000
    O229    O    0.83808   0.33985   0.11131   1.000
    O230    O    0.90453   0.34314   0.15836   1.000
    O231    O    0.89506   0.35231   0.04743   1.000
    O232    O    0.38407   0.40956   0.10954   1.000
    O233    O    0.33900   0.33912   0.11142   1.000
    O234    O    0.40446   0.34409   0.16016   1.000
    O235    O    0.39648   0.35193   0.04844   1.000
    O236    O    0.62317   0.56253   0.11181   1.000
    O237    O    0.64560   0.64714   0.11780   1.000
    O238    O    0.58813   0.63165   0.13952   1.000
    O239    O    0.12435   0.56315   0.11192   1.000
    O240    O    0.14571   0.64828   0.11794   1.000
    O241    O    0.08843   0.63152   0.13961   1.000
    O242    O    0.78204   0.67114   0.11669   1.000
    O243    O    0.71539   0.69845   0.11856   1.000
    O244    O    0.76317   0.76677   0.14670   1.000
    O245    O    0.75936   0.74274   0.05395   1.000
    O246    O    0.28206   0.67115   0.11680   1.000
    O247    O    0.21536   0.69949   0.11870   1.000
    O248    O    0.26338   0.76678   0.14698   1.000
    O249    O    0.25952   0.74285   0.05405   1.000
    O250    O    0.88272   0.53471   0.11203   1.000
    O251    O    0.84458   0.60645   0.11816   1.000
    O252    O    0.90109   0.61176   0.14931   1.000
    O253    O    0.38278   0.53481   0.11218   1.000
    O254    O    0.34452   0.60640   0.11831   1.000
    O255    O    0.40105   0.61183   0.14958   1.000
    O256    O    0.51845   0.36481   0.19423   1.000
    O257    O    0.01952   0.36473   0.19400   1.000
    O258    O    0.24800   0.13976   0.20725   1.000
    O259    O    0.74788   0.14029   0.20744   1.000
    O260    O    0.52898   0.62772   0.20705   1.000
    O261    O    0.02903   0.62716   0.20701   1.000
    O262    O    0.75974   0.84427   0.22466   1.000
    O263    O    0.25982   0.84394   0.22506   1.000
    O264    O    0.95957   0.62099   0.21455   1.000
    O265    O    0.45956   0.62124   0.21477   1.000
    O266    O    0.96271   0.36029   0.22319   1.000
    O267    O    0.46197   0.36156   0.22496   1.000
    O268    O    0.00003   0.42865   0.24862   1.000
    O269    O    0.00983   0.34406   0.27503   1.000
    O270    O    0.50005   0.42918   0.24917   1.000
    O271    O    0.50964   0.34448   0.27562   1.000
    O272    O    0.74964   0.04616   0.24789   1.000
    O273    O    0.75020   0.92899   0.25107   1.000
    O274    O    0.24943   0.04572   0.24790   1.000
    O275    O    0.24997   0.92856   0.25130   1.000
    O276    O    0.99950   0.54587   0.25199   1.000
    O277    O    0.99820   0.64004   0.29261   1.000
    O278    O    0.49976   0.54635   0.25220   1.000
    O279    O    0.49833   0.64026   0.29279   1.000
    O280    O    0.20951   0.12089   0.28542   1.000
    O281    O    0.27903   0.12685   0.29283   1.000
    O282    O    0.70951   0.12112   0.28541   1.000
    O283    O    0.77902   0.12725   0.29299   1.000
    O284    O    0.71262   0.86109   0.27629   1.000
    O285    O    0.76943   0.86492   0.30574   1.000
    O286    O    0.21263   0.86027   0.27678   1.000
    O287    O    0.26938   0.86469   0.30609   1.000
    O288    O    0.65442   0.84391   0.34105   1.000
    O289    O    0.15458   0.84321   0.34170   1.000
    O290    O    0.65103   0.11186   0.35062   1.000
    O291    O    0.15107   0.11178   0.35073   1.000
    O292    O    0.01335   0.26684   0.35314   1.000
    O293    O    0.51336   0.26703   0.35342   1.000
    O294    O    0.33853   0.13092   0.36006   1.000
    O295    O    0.83844   0.13137   0.36039   1.000
    O296    O    0.99518   0.71784   0.37115   1.000
    O297    O    0.49530   0.71781   0.37138   1.000
    O298    O    0.82649   0.87032   0.37551   1.000
    O299    O    0.32652   0.87019   0.37572   1.000
    O300    O    0.96537   0.19935   0.38136   1.000
    O301    O    0.89572   0.14802   0.38209   1.000
    O302    O    0.46533   0.19937   0.38155   1.000
    O303    O    0.39575   0.14774   0.38199   1.000
    O304    O    0.95821   0.78783   0.38527   1.000
    O305    O    0.89383   0.84840   0.38776   1.000
    O306    O    0.45811   0.78737   0.38552   1.000
    O307    O    0.39374   0.84784   0.38793   1.000
    O308    O    0.59450   0.10653   0.38182   1.000
    O309    O    0.53203   0.17127   0.38336   1.000
    O310    O    0.09454   0.10640   0.38189   1.000
    O311    O    0.03207   0.17118   0.38329   1.000
    O312    O    0.08831   0.84001   0.38863   1.000
    O313    O    0.01785   0.80212   0.39082   1.000
    O314    O    0.58806   0.84034   0.38833   1.000
    O315    O    0.51772   0.80232   0.39096   1.000
    O316    O    0.37451   0.06241   0.38763   1.000
    O317    O    0.37269   0.94668   0.39342   1.000
    O318    O    0.87431   0.06287   0.38808   1.000
    O319    O    0.87251   0.94700   0.39365   1.000
    O320    O    0.63275   0.03492   0.38805   1.000
    O321    O    0.63359   0.90985   0.39079   1.000
    O322    O    0.13278   0.03478   0.38815   1.000
    O323    O    0.13371   0.90968   0.39116   1.000
    O324    O    0.64275   0.10942   0.43415   1.000
    O325    O    0.14278   0.10915   0.43429   1.000
    O326    O    0.00947   0.24284   0.44601   1.000
    O327    O    0.50948   0.24296   0.44615   1.000
    O328    O    0.35390   0.12545   0.44102   1.000
    O329    O    0.85397   0.12663   0.44136   1.000
    O330    O    0.63811   0.77893   0.40002   1.000
    O331    O    0.64500   0.85162   0.45214   1.000
    O332    O    0.13824   0.77890   0.40220   1.000
    O333    O    0.14521   0.85225   0.45278   1.000
    O334    O    0.98948   0.74925   0.44897   1.000
    O335    O    0.48964   0.74920   0.44917   1.000
    O336    O    0.85348   0.87959   0.46185   1.000
    O337    O    0.35344   0.87980   0.46189   1.000
    O338    O    0.64790   0.12193   0.53781   1.000
    O339    O    0.14773   0.12146   0.53794   1.000
    O340    O    0.35573   0.14704   0.54739   1.000
    O341    O    0.85589   0.14779   0.54785   1.000
    O342    O    0.99229   0.75654   0.55358   1.000
    O343    O    0.49244   0.75654   0.55379   1.000
    O344    O    0.01244   0.25062   0.55060   1.000
    O345    O    0.51244   0.25076   0.55068   1.000
    O346    O    0.64722   0.87254   0.55885   1.000
    O347    O    0.14707   0.87361   0.55944   1.000
    O348    O    0.85805   0.89134   0.56553   1.000
    O349    O    0.35794   0.89178   0.56560   1.000
    O350    O    0.36234   0.22125   0.59767   1.000
    O351    O    0.86237   0.22106   0.59991   1.000
    O352    O    0.63097   0.05392   0.60645   1.000
    O353    O    0.60775   0.15167   0.61228   1.000
    O354    O    0.67553   0.13207   0.62429   1.000
    O355    O    0.12948   0.05370   0.60640   1.000
    O356    O    0.10768   0.15162   0.61234   1.000
    O357    O    0.17540   0.13022   0.62432   1.000
    O358    O    0.98355   0.19847   0.60882   1.000
    O359    O    0.04322   0.21187   0.61468   1.000
    O360    O    0.00676   0.28238   0.62839   1.000
    O361    O    0.48343   0.19872   0.60887   1.000
    O362    O    0.54311   0.21169   0.61470   1.000
    O363    O    0.50677   0.28250   0.62847   1.000
    O364    O    0.36811   0.09047   0.60920   1.000
    O365    O    0.41272   0.16088   0.61115   1.000
    O366    O    0.34699   0.15688   0.65840   1.000
    O367    O    0.86814   0.09019   0.60934   1.000
    O368    O    0.91287   0.16052   0.61146   1.000
    O369    O    0.84699   0.15529   0.65909   1.000
    O370    O    0.62888   0.93726   0.61224   1.000
    O371    O    0.60515   0.85347   0.61826   1.000
    O372    O    0.66274   0.86663   0.63990   1.000
    O373    O    0.12731   0.93764   0.61242   1.000
    O374    O    0.10514   0.85285   0.61854   1.000
    O375    O    0.16241   0.86873   0.64066   1.000
    O376    O    0.96889   0.82726   0.61652   1.000
    O377    O    0.03562   0.80089   0.61868   1.000
    O378    O    0.98827   0.73199   0.64628   1.000
    O379    O    0.46881   0.82721   0.61666   1.000
    O380    O    0.53538   0.80188   0.61880   1.000
    O381    O    0.48854   0.73154   0.64613   1.000
    O382    O    0.86899   0.96490   0.61210   1.000
    O383    O    0.90628   0.89228   0.61808   1.000
    O384    O    0.84977   0.88797   0.64905   1.000
    O385    O    0.36896   0.96513   0.61233   1.000
    O386    O    0.40614   0.89231   0.61817   1.000
    O387    O    0.34965   0.88810   0.64909   1.000
    O388    O    0.23259   0.13544   0.69403   1.000
    O389    O    0.73222   0.13665   0.69390   1.000
    O390    O    0.00341   0.35978   0.70708   1.000
    O391    O    0.50318   0.35949   0.70745   1.000
    O392    O    0.72167   0.87035   0.70694   1.000
    O393    O    0.22180   0.87278   0.70788   1.000
    O394    O    0.49208   0.65438   0.72442   1.000
    O395    O    0.99202   0.65485   0.72437   1.000
    O396    O    0.29122   0.87898   0.71454   1.000
    O397    O    0.79108   0.87828   0.71411   1.000
    O398    O    0.28936   0.13964   0.72345   1.000
    O399    O    0.78899   0.13785   0.72368   1.000
    O400    O    0.75046   0.07039   0.74701   1.000
    O401    O    0.74201   0.15427   0.77566   1.000
    O402    O    0.25197   0.07139   0.74868   1.000
    O403    O    0.24234   0.15592   0.77522   1.000
    O404    O    0.00188   0.45342   0.74798   1.000
    O405    O    0.00175   0.57062   0.75121   1.000
    O406    O    0.50048   0.45284   0.74985   1.000
    O407    O    0.50041   0.57041   0.75307   1.000
    O408    O    0.75061   0.95286   0.75024   1.000
    O409    O    0.75323   0.85953   0.79263   1.000
    O410    O    0.25201   0.95415   0.75222   1.000
    O411    O    0.25351   0.86017   0.79315   1.000
    O412    O    0.04122   0.37859   0.78577   1.000
    O413    O    0.97174   0.37225   0.79252   1.000
    O414    O    0.54097   0.37827   0.78588   1.000
    O415    O    0.47148   0.37020   0.79311   1.000
    O416    O    0.03921   0.63874   0.77604   1.000
    O417    O    0.98246   0.63493   0.80571   1.000
    O418    O    0.53903   0.63776   0.77638   1.000
    O419    O    0.48225   0.63668   0.80617   1.000
    O420    O    0.09699   0.65635   0.84090   1.000
    O421    O    0.59702   0.65514   0.84090   1.000
    O422    O    0.59970   0.38780   0.85092   1.000
    O423    O    0.09970   0.38818   0.85111   1.000
    O424    O    0.23839   0.23297   0.85363   1.000
    O425    O    0.73837   0.23122   0.85406   1.000
    O426    O    0.91230   0.36845   0.85968   1.000
    O427    O    0.41291   0.36654   0.86069   1.000
    O428    O    0.75676   0.78250   0.87158   1.000
    O429    O    0.25686   0.78242   0.87169   1.000
    O430    O    0.92536   0.63000   0.87550   1.000
    O431    O    0.42560   0.63209   0.87584   1.000
    O432    O    0.78547   0.30051   0.88152   1.000
    O433    O    0.85501   0.35256   0.88175   1.000
    O434    O    0.79322   0.71195   0.88533   1.000
    O435    O    0.85765   0.65158   0.88764   1.000
    O436    O    0.29322   0.71165   0.88543   1.000
    O437    O    0.35787   0.65166   0.88788   1.000
    O438    O    0.28547   0.30200   0.88328   1.000
    O439    O    0.35560   0.35335   0.88409   1.000
    O440    O    0.65622   0.39199   0.88182   1.000
    O441    O    0.71877   0.32697   0.88340   1.000
    O442    O    0.15622   0.39280   0.88192   1.000
    O443    O    0.21879   0.32785   0.88367   1.000
    O444    O    0.66288   0.66048   0.88849   1.000
    O445    O    0.73355   0.69853   0.89113   1.000
    O446    O    0.16283   0.66079   0.88856   1.000
    O447    O    0.23355   0.69858   0.89123   1.000
    O448    O    0.87718   0.43746   0.88763   1.000
    O449    O    0.87939   0.55353   0.89349   1.000
    O450    O    0.37925   0.43724   0.88852   1.000
    O451    O    0.38110   0.55386   0.89383   1.000
    O452    O    0.11888   0.46535   0.88778   1.000
    O453    O    0.11806   0.59058   0.89053   1.000
    O454    O    0.61893   0.46455   0.88819   1.000
    O455    O    0.61813   0.58997   0.89089   1.000
    O456    O    0.10804   0.39188   0.93455   1.000
    O457    O    0.60797   0.39047   0.93438   1.000
    O458    O    0.89693   0.37363   0.94081   1.000
    O459    O    0.39851   0.37309   0.94212   1.000
    O460    O    0.61238   0.72098   0.90003   1.000
    O461    O    0.11238   0.72140   0.90014   1.000
    O462    O    0.76238   0.75066   0.94937   1.000
    O463    O    0.26250   0.75062   0.94946   1.000
loop_
    _geom_bond_atom_site_label_1
    _geom_bond_atom_site_label_2
    _geom_bond_distance
    _geom_bond_site_symmetry_2
    _ccdc_geom_bond_type
    C138   O200      0.77390      .   S
    C52    O200      0.77390      .   S
    C138   O201      0.87628  1_554   S
    C20    O201      0.87628      .   S
    C139   O202      0.77396      .   S
    C53    O202      0.77396      .   S
    C139   O203      0.87595  1_554   S
    C21    O203      0.87595      .   S
    C89    O204      0.77250      .   S
    C33    O204      0.77250      .   S
    C89    O205      0.92334  1_554   S
    C1     O205      0.92334      .   S
    C88    O206      0.77285      .   S
    C32    O206      0.77285      .   S
    C88    O207      0.92366  1_554   S
    C0     O207      0.92366      .   S
    C131   O208      0.77453      .   S
    C51    O208      0.77453      .   S
    C131   O209      0.88452  1_554   S
    C19    O209      0.88452      .   S
    C130   O210      0.77444      .   S
    C50    O210      0.77444      .   S
    C130   O211      0.88394  1_554   S
    C18    O211      0.88394      .   S
    C197   O212      0.86024      .   S
    C17    O212      0.86024      .   S
    C196   O213      0.85969      .   S
    C16    O213      0.85969      .   S
    C3     O214      0.88068      .   S
    C87    O214      0.88068      .   S
    C3     O215      0.86880      .   S
    C141   O215      0.86880      .   S
    C3     O216      0.87393      .   S
    C143   O216      0.87393      .   S
    C3     O217      0.88414      .   S
    C67    O217      0.88414  1_556   S
    C2     O218      0.88102      .   S
    C86    O218      0.88102      .   S
    C2     O219      0.86847      .   S
    C140   O219      0.86847      .   S
    C2     O220      0.87207      .   S
    C142   O220      0.87207      .   S
    C2     O221      0.88406      .   S
    C66    O221      0.88406  1_556   S
    C52    O222      0.76757      .   S
    C134   O222      0.76757      .   S
    C52    O223      0.77416      .   S
    C140   O223      0.77416      .   S
    C52    O224      0.76835      .   S
    C136   O224      0.76835      .   S
    C53    O225      0.76796      .   S
    C135   O225      0.76796      .   S
    C53    O226      0.77437      .   S
    C141   O226      0.77437      .   S
    C53    O227      0.76878      .   S
    C137   O227      0.76878      .   S
    C17    O228      0.95361      .   S
    C133   O228      0.95361      .   S
    C17    O229      0.90140      .   S
    C135   O229      0.90140      .   S
    C17    O230      0.92071      .   S
    C149   O230      0.92071      .   S
    C17    O231      0.92497      .   S
    C153   O231      0.92497  1_556   S
    C16    O232      0.95438      .   S
    C132   O232      0.95438      .   S
    C16    O233      0.90045      .   S
    C134   O233      0.90045      .   S
    C16    O234      0.92299      .   S
    C148   O234      0.92299      .   S
    C16    O235      0.92571      .   S
    C152   O235      0.92571  1_556   S
    C33    O236      0.77182      .   S
    C87    O236      0.77182      .   S
    C33    O237      0.76505      .   S
    C93    O237      0.76505      .   S
    C33    O238      0.76677      .   S
    C91    O238      0.76677      .   S
    C32    O239      0.77249      .   S
    C86    O239      0.77249      .   S
    C32    O240      0.76494      .   S
    C92    O240      0.76494      .   S
    C32    O241      0.76670      .   S
    C90    O241      0.76670      .   S
    C5     O242      0.88386      .   S
    C159   O242      0.88386      .   S
    C5     O243      0.87598      .   S
    C93    O243      0.87598      .   S
    C5     O244      0.87583      .   S
    C115   O244      0.87583      .   S
    C5     O245      0.87712      .   S
    C75    O245      0.87712  1_556   S
    C4     O246      0.88435      .   S
    C158   O246      0.88435      .   S
    C4     O247      0.87595      .   S
    C92    O247      0.87595      .   S
    C4     O248      0.87533      .   S
    C114   O248      0.87533      .   S
    C4     O249      0.87691      .   S
    C74    O249      0.87691  1_556   S
    C51    O250      0.76674      .   S
    C133   O250      0.76674      .   S
    C51    O251      0.76886      .   S
    C159   O251      0.76886      .   S
    C51    O252      0.77101      .   S
    C129   O252      0.77101      .   S
    C50    O253      0.76693      .   S
    C132   O253      0.76693      .   S
    C50    O254      0.76903      .   S
    C158   O254      0.76903      .   S
    C50    O255      0.77100      .   S
    C128   O255      0.77100      .   S
    C143   O256      0.77203      .   S
    C54    O256      0.77203      .   S
    C142   O257      0.77163      .   S
    C55    O257      0.77163  1_655   S
    C136   O258      0.86849      .   S
    C14    O258      0.86849      .   S
    C137   O259      0.86769      .   S
    C15    O259      0.86769      .   S
    C91    O260      0.87927      .   S
    C22    O260      0.87927      .   S
    C90    O261      0.87953      .   S
    C23    O261      0.87953  1_655   S
    C115   O262      0.76709      .   S
    C47    O262      0.76709      .   S
    C114   O263      0.76695      .   S
    C46    O263      0.76695      .   S
    C129   O264      0.88765      .   S
    C23    O264      0.88765      .   S
    C128   O265      0.88752      .   S
    C22    O265      0.88752      .   S
    C149   O266      0.77194      .   S
    C55    O266      0.77194      .   S
    C148   O267      0.77253      .   S
    C54    O267      0.77253      .   S
    C55    O268      0.77036  1_655   S
    C144   O268      0.77036      .   S
    C55    O269      0.76719  1_655   S
    C146   O269      0.76719      .   S
    C54    O270      0.76981      .   S
    C145   O270      0.76981      .   S
    C54    O271      0.76710      .   S
    C147   O271      0.76710      .   S
    C113   O272      0.87915  1_565   S
    C15    O272      0.87915      .   S
    C113   O273      0.77007      .   S
    C47    O273      0.77007      .   S
    C112   O274      0.87872  1_565   S
    C14    O274      0.87872      .   S
    C112   O275      0.77036      .   S
    C46    O275      0.77036      .   S
    C23    O276      0.87910      .   S
    C144   O276      0.87910  1_455   S
    C23    O277      0.86821      .   S
    C105   O277      0.86821      .   S
    C22    O278      0.87911      .   S
    C145   O278      0.87911      .   S
    C22    O279      0.86756      .   S
    C104   O279      0.86756      .   S
    C14    O280      0.88737      .   S
    C96    O280      0.88737      .   S
    C14    O281      0.88006      .   S
    C186   O281      0.88006      .   S
    C15    O282      0.88730      .   S
    C97    O282      0.88730      .   S
    C15    O283      0.87939      .   S
    C187   O283      0.87939      .   S
    C47    O284      0.77215      .   S
    C117   O284      0.77215      .   S
    C47    O285      0.77165      .   S
    C111   O285      0.77165      .   S
    C46    O286      0.77183      .   S
    C116   O286      0.77183      .   S
    C46    O287      0.77171      .   S
    C110   O287      0.77171      .   S
    C117   O288      0.92127      .   S
    C9     O288      0.92127      .   S
    C116   O289      0.92048      .   S
    C8     O289      0.92048      .   S
    C97    O290      0.77067      .   S
    C43    O290      0.77067      .   S
    C96    O291      0.77109      .   S
    C42    O291      0.77109      .   S
    C146   O292      0.87526      .   S
    C28    O292      0.87526      .   S
    C147   O293      0.87574      .   S
    C29    O293      0.87574      .   S
    C186   O294      0.76649      .   S
    C56    O294      0.76649      .   S
    C187   O295      0.76692      .   S
    C57    O295      0.76692      .   S
    C105   O296      0.76877      .   S
    C45    O296      0.76877      .   S
    C104   O297      0.76859      .   S
    C44    O297      0.76859      .   S
    C111   O298      0.87266      .   S
    C27    O298      0.87266      .   S
    C110   O299      0.87177      .   S
    C26    O299      0.87177      .   S
    C189   O300      0.87611      .   S
    C28    O300      0.87611  1_455   S
    C189   O301      0.76495      .   S
    C57    O301      0.76495      .   S
    C188   O302      0.87644      .   S
    C29    O302      0.87644      .   S
    C188   O303      0.76475      .   S
    C56    O303      0.76475      .   S
    C109   O304      0.77426      .   S
    C45    O304      0.77426      .   S
    C109   O305      0.86841      .   S
    C27    O305      0.86841      .   S
    C108   O306      0.77426      .   S
    C44    O306      0.77426      .   S
    C108   O307      0.86821      .   S
    C26    O307      0.86821      .   S
    C127   O308      0.76907      .   S
    C43    O308      0.76907      .   S
    C127   O309      0.88407      .   S
    C29    O309      0.88407      .   S
    C126   O310      0.76904      .   S
    C42    O310      0.76904      .   S
    C126   O311      0.88431      .   S
    C28    O311      0.88431      .   S
    C102   O312      0.90084      .   S
    C8     O312      0.90084      .   S
    C102   O313      0.76788      .   S
    C45    O313      0.76788  1_655   S
    C103   O314      0.90110      .   S
    C9     O314      0.90110      .   S
    C103   O315      0.76804      .   S
    C44    O315      0.76804      .   S
    C182   O316      0.77235      .   S
    C56    O316      0.77235      .   S
    C182   O317      0.88146  1_545   S
    C26    O317      0.88146      .   S
    C183   O318      0.77264      .   S
    C57    O318      0.77264      .   S
    C183   O319      0.88103  1_545   S
    C27    O319      0.88103      .   S
    C101   O320      0.76639  1_565   S
    C43    O320      0.76639      .   S
    C101   O321      0.95294      .   S
    C9     O321      0.95294      .   S
    C100   O322      0.76648  1_565   S
    C42    O322      0.76648      .   S
    C100   O323      0.95336      .   S
    C8     O323      0.95336      .   S
    C43    O324      0.77484      .   S
    C99    O324      0.77484      .   S
    C42    O325      0.77453      .   S
    C98    O325      0.77453      .   S
    C28    O326      0.87705      .   S
    C170   O326      0.87705      .   S
    C29    O327      0.87677      .   S
    C171   O327      0.87677      .   S
    C56    O328      0.77334      .   S
    C184   O328      0.77334      .   S
    C57    O329      0.77286      .   S
    C185   O329      0.77286      .   S
    C9     O330      0.86015      .   S
    C195   O330      0.86015      .   S
    C9     O331      0.92345      .   S
    C121   O331      0.92345      .   S
    C8     O332      0.86033      .   S
    C194   O332      0.86033      .   S
    C8     O333      0.92517      .   S
    C120   O333      0.92517      .   S
    C45    O334      0.77393      .   S
    C107   O334      0.77393      .   S
    C44    O335      0.77363      .   S
    C106   O335      0.77363      .   S
    C27    O336      0.88427      .   S
    C163   O336      0.88427      .   S
    C26    O337      0.88380      .   S
    C162   O337      0.88380      .   S
    C99    O338      0.88387      .   S
    C11    O338      0.88387      .   S
    C98    O339      0.88406      .   S
    C10    O339      0.88406      .   S
    C184   O340      0.92440      .   S
    C24    O340      0.92440      .   S
    C185   O341      0.92377      .   S
    C25    O341      0.92377      .   S
    C107   O342      0.87583      .   S
    C13    O342      0.87583      .   S
    C106   O343      0.87609      .   S
    C12    O343      0.87609      .   S
    C170   O344      0.77393      .   S
    C60    O344      0.77393      .   S
    C171   O345      0.77389      .   S
    C61    O345      0.77389      .   S
    C121   O346      0.77246      .   S
    C41    O346      0.77246      .   S
    C120   O347      0.77322      .   S
    C40    O347      0.77322      .   S
    C163   O348      0.77432      .   S
    C59    O348      0.77432      .   S
    C162   O349      0.77414      .   S
    C58    O349      0.77414      .   S
    C198   O350      0.85994      .   S
    C24    O350      0.85994      .   S
    C199   O351      0.85943      .   S
    C25    O351      0.85943      .   S
    C11    O352      0.88019      .   S
    C119   O352      0.88019  1_565   S
    C11    O353      0.86871      .   S
    C173   O353      0.86871      .   S
    C11    O354      0.87412      .   S
    C175   O354      0.87412      .   S
    C10    O355      0.88100      .   S
    C118   O355      0.88100  1_565   S
    C10    O356      0.86811      .   S
    C172   O356      0.86811      .   S
    C10    O357      0.87307      .   S
    C174   O357      0.87307      .   S
    C60    O358      0.76734  1_455   S
    C167   O358      0.76734      .   S
    C60    O359      0.77397      .   S
    C172   O359      0.77397      .   S
    C60    O360      0.76881      .   S
    C168   O360      0.76881      .   S
    C61    O361      0.76720      .   S
    C166   O361      0.76720      .   S
    C61    O362      0.77401      .   S
    C173   O362      0.77401      .   S
    C61    O363      0.76907      .   S
    C169   O363      0.76907      .   S
    C24    O364      0.95561      .   S
    C164   O364      0.95561      .   S
    C24    O365      0.89898      .   S
    C166   O365      0.89898      .   S
    C24    O366      0.91896      .   S
    C180   O366      0.91896      .   S
    C25    O367      0.95454      .   S
    C165   O367      0.95454      .   S
    C25    O368      0.89953      .   S
    C167   O368      0.89953      .   S
    C25    O369      0.92151      .   S
    C181   O369      0.92151      .   S
    C41    O370      0.77154      .   S
    C119   O370      0.77154      .   S
    C41    O371      0.76424      .   S
    C125   O371      0.76424      .   S
    C41    O372      0.76715      .   S
    C123   O372      0.76715      .   S
    C40    O373      0.77166      .   S
    C118   O373      0.77166      .   S
    C40    O374      0.76432      .   S
    C124   O374      0.76432      .   S
    C40    O375      0.76639      .   S
    C122   O375      0.76639      .   S
    C13    O376      0.88238      .   S
    C191   O376      0.88238      .   S
    C13    O377      0.87551  1_655   S
    C124   O377      0.87551      .   S
    C13    O378      0.87484      .   S
    C83    O378      0.87484      .   S
    C12    O379      0.88242      .   S
    C190   O379      0.88242      .   S
    C12    O380      0.87485      .   S
    C125   O380      0.87485      .   S
    C12    O381      0.87536      .   S
    C82    O381      0.87536      .   S
    C59    O382      0.76634      .   S
    C165   O382      0.76634  1_545   S
    C59    O383      0.76842      .   S
    C191   O383      0.76842      .   S
    C59    O384      0.77045      .   S
    C161   O384      0.77045      .   S
    C58    O385      0.76636      .   S
    C164   O385      0.76636  1_545   S
    C58    O386      0.76835      .   S
    C190   O386      0.76835      .   S
    C58    O387      0.77038      .   S
    C160   O387      0.77038      .   S
    C174   O388      0.77218      .   S
    C62    O388      0.77218      .   S
    C175   O389      0.77214      .   S
    C63    O389      0.77214      .   S
    C168   O390      0.86738      .   S
    C6     O390      0.86738      .   S
    C169   O391      0.86806      .   S
    C7     O391      0.86806      .   S
    C123   O392      0.87983      .   S
    C31    O392      0.87983      .   S
    C122   O393      0.87994      .   S
    C30    O393      0.87994      .   S
    C82    O394      0.76671      .   S
    C39    O394      0.76671      .   S
    C83    O395      0.76653      .   S
    C38    O395      0.76653  1_455   S
    C160   O396      0.88613      .   S
    C30    O396      0.88613      .   S
    C161   O397      0.88636      .   S
    C31    O397      0.88636      .   S
    C180   O398      0.77178      .   S
    C62    O398      0.77178      .   S
    C181   O399      0.77237      .   S
    C63    O399      0.77237      .   S
    C63    O400      0.76928      .   S
    C177   O400      0.76928      .   S
    C63    O401      0.76662      .   S
    C179   O401      0.76662      .   S
    C62    O402      0.76998      .   S
    C176   O402      0.76998      .   S
    C62    O403      0.76678      .   S
    C178   O403      0.76678      .   S
    C81    O404      0.87819  1_655   S
    C6     O404      0.87819      .   S
    C81    O405      0.76944  1_655   S
    C38    O405      0.76944      .   S
    C80    O406      0.87831      .   S
    C7     O406      0.87831      .   S
    C80    O407      0.76938      .   S
    C39    O407      0.76938      .   S
    C31    O408      0.87788      .   S
    C177   O408      0.87788  1_545   S
    C31    O409      0.86789      .   S
    C73    O409      0.86789      .   S
    C30    O410      0.87823      .   S
    C176   O410      0.87823  1_545   S
    C30    O411      0.86752      .   S
    C72    O411      0.86752      .   S
    C6     O412      0.88590      .   S
    C64    O412      0.88590      .   S
    C6     O413      0.87973  1_455   S
    C155   O413      0.87973      .   S
    C7     O414      0.88603      .   S
    C65    O414      0.88603      .   S
    C7     O415      0.88057      .   S
    C154   O415      0.88057      .   S
    C38    O416      0.77215      .   S
    C84    O416      0.77215      .   S
    C38    O417      0.77164  1_455   S
    C79    O417      0.77164      .   S
    C39    O418      0.77231      .   S
    C85    O418      0.77231      .   S
    C39    O419      0.77211      .   S
    C78    O419      0.77211      .   S
    C84    O420      0.92096      .   S
    C0     O420      0.92096      .   S
    C85    O421      0.92072      .   S
    C1     O421      0.92072      .   S
    C65    O422      0.77055      .   S
    C35    O422      0.77055      .   S
    C64    O423      0.77057      .   S
    C34    O423      0.77057      .   S
    C178   O424      0.87467      .   S
    C20    O424      0.87467      .   S
    C179   O425      0.87529      .   S
    C21    O425      0.87529      .   S
    C155   O426      0.76647      .   S
    C49    O426      0.76647      .   S
    C154   O427      0.76741      .   S
    C48    O427      0.76741      .   S
    C73    O428      0.76897      .   S
    C37    O428      0.76897      .   S
    C72    O429      0.76883      .   S
    C36    O429      0.76883      .   S
    C79    O430      0.87376      .   S
    C19    O430      0.87376      .   S
    C78    O431      0.87412      .   S
    C18    O431      0.87412      .   S
    C157   O432      0.87606      .   S
    C21    O432      0.87606      .   S
    C157   O433      0.76455      .   S
    C49    O433      0.76455      .   S
    C77    O434      0.77411      .   S
    C37    O434      0.77411      .   S
    C77    O435      0.86817      .   S
    C19    O435      0.86817      .   S
    C76    O436      0.77407      .   S
    C36    O436      0.77407      .   S
    C76    O437      0.86865      .   S
    C18    O437      0.86865      .   S
    C156   O438      0.87421      .   S
    C20    O438      0.87421      .   S
    C156   O439      0.76395      .   S
    C48    O439      0.76395      .   S
    C95    O440      0.76853      .   S
    C35    O440      0.76853      .   S
    C95    O441      0.88257      .   S
    C21    O441      0.88257      .   S
    C94    O442      0.76822      .   S
    C34    O442      0.76822      .   S
    C94    O443      0.88216      .   S
    C20    O443      0.88216      .   S
    C71    O444      0.89953      .   S
    C1     O444      0.89953      .   S
    C71    O445      0.76738      .   S
    C37    O445      0.76738      .   S
    C70    O446      0.89916      .   S
    C0     O446      0.89916      .   S
    C70    O447      0.76719      .   S
    C36    O447      0.76719      .   S
    C151   O448      0.77177      .   S
    C49    O448      0.77177      .   S
    C151   O449      0.88130      .   S
    C19    O449      0.88130      .   S
    C150   O450      0.77162      .   S
    C48    O450      0.77162      .   S
    C150   O451      0.88054      .   S
    C18    O451      0.88054      .   S
    C68    O452      0.76643      .   S
    C34    O452      0.76643      .   S
    C68    O453      0.95385      .   S
    C0     O453      0.95385      .   S
    C69    O454      0.76677      .   S
    C35    O454      0.76677      .   S
    C69    O455      0.95567      .   S
    C1     O455      0.95567      .   S
    C34    O456      0.77420      .   S
    C66    O456      0.77420      .   S
    C35    O457      0.77444      .   S
    C67    O457      0.77444      .   S
    C49    O458      0.77301      .   S
    C153   O458      0.77301      .   S
    C48    O459      0.77322      .   S
    C152   O459      0.77322      .   S
    C1     O460      0.85989      .   S
    C193   O460      0.85989      .   S
    C0     O461      0.85964      .   S
    C192   O461      0.85964      .   S
    C37    O462      0.77404      .   S
    C75    O462      0.77404      .   S
    C36    O463      0.77407      .   S
    C74    O463      0.77407      .   S
