# CIF file generated by openbabel 2.4.90, see http://openbabel.sf.net
data_I
_chemical_name_common ''
_cell_length_a 14.039
_cell_length_b 14.068
_cell_length_c 14.791
_cell_angle_alpha 90.014
_cell_angle_beta 89.981
_cell_angle_gamma 89.986
_space_group_name_H-M_alt 'P 1'
_space_group_name_Hall 'P 1'
loop_
    _symmetry_equiv_pos_as_xyz
    x,y,z
loop_
    _atom_site_label
    _atom_site_type_symbol
    _atom_site_fract_x
    _atom_site_fract_y
    _atom_site_fract_z
    _atom_site_occupancy
    Cu0     Cu   0.00003   0.99996   0.20000   1.000
    C1      C    0.95807   0.88006   0.84318   1.000
    C2      C    0.11964   0.04240   0.15682   1.000
    C3      C    0.04183   0.11990   0.15691   1.000
    C4      C    0.88029   0.95759   0.84322   1.000
    O5      O    0.02255   0.88271   0.90137   1.000
    O6      O    0.95012   0.81653   0.78109   1.000
    O7      O    0.11713   0.97828   0.09831   1.000
    O8      O    0.18334   0.05012   0.21886   1.000
    O9      O    0.97730   0.11724   0.09877   1.000
    O10     O    0.04986   0.18347   0.21896   1.000
    O11     O    0.88280   0.02170   0.90173   1.000
    O12     O    0.81662   0.94987   0.78115   1.000
loop_
    _geom_bond_atom_site_label_1
    _geom_bond_atom_site_label_2
    _geom_bond_distance
    _geom_bond_site_symmetry_2
    _ccdc_geom_bond_type
    O7     C2        1.25034  1_565   S
    O9     C3        1.24989  1_655   S
    C2     C3        1.54325      .   S
    C2     O8        1.28612      .   S
    C2     Cu0       1.89323  1_545   S
    C3     O10       1.28623      .   S
    C3     Cu0       1.89692  1_545   S
    O6     C1        1.28623      .   S
    O12    C4        1.28615      .   S
    C1     C4        1.54317      .   S
    C1     O5        1.24985  1_655   S
    C4     O11       1.25025  1_565   S
    O7     Cu0       2.24856      .   S
    O9     Cu0       2.25095  1_645   S
