# CIF file generated by openbabel 2.4.90, see http://openbabel.sf.net
data_I
_chemical_name_common ''
_cell_length_a 14.039
_cell_length_b 14.068
_cell_length_c 14.791
_cell_angle_alpha 90.014
_cell_angle_beta 89.981
_cell_angle_gamma 89.986
_space_group_name_H-M_alt 'P 1'
_space_group_name_Hall 'P 1'
loop_
    _symmetry_equiv_pos_as_xyz
    x,y,z
loop_
    _atom_site_label
    _atom_site_type_symbol
    _atom_site_fract_x
    _atom_site_fract_y
    _atom_site_fract_z
    _atom_site_occupancy
    Cu0     Cu   0.99999   0.49998   0.50002   1.000
    Cu1     Cu   0.49999   0.00003   0.50004   1.000
    Cu2     Cu   0.83403   0.66604   0.20736   1.000
    Cu3     Cu   0.66594   0.83390   0.20736   1.000
    Cu4     Cu   0.83404   0.83386   0.70744   1.000
    Cu5     Cu   0.66592   0.66617   0.70745   1.000
    Cu6     Cu   0.16594   0.16613   0.29259   1.000
    Cu7     Cu   0.33405   0.33382   0.29258   1.000
    Cu8     Cu   0.16598   0.33388   0.79265   1.000
    Cu9     Cu   0.33400   0.16616   0.79260   1.000
    Cu10    Cu   0.49999   0.50000   0.00000   1.000
