# CIF file generated by openbabel 2.4.90, see http://openbabel.sf.net
data_I
_chemical_name_common ''
_cell_length_a 14.039
_cell_length_b 14.068
_cell_length_c 14.791
_cell_angle_alpha 90.014
_cell_angle_beta 89.981
_cell_angle_gamma 89.986
_space_group_name_H-M_alt 'P 1'
_space_group_name_Hall 'P 1'
loop_
    _symmetry_equiv_pos_as_xyz
    x,y,z
loop_
    _atom_site_label
    _atom_site_type_symbol
    _atom_site_fract_x
    _atom_site_fract_y
    _atom_site_fract_z
    _atom_site_occupancy
    N0      N    0.61329   0.61349   0.09417   1.000
    N1      N    0.08169   0.41811   0.65796   1.000
    N2      N    0.41831   0.08187   0.65794   1.000
    N3      N    0.41837   0.41815   0.15794   1.000
    N4      N    0.58158   0.58189   0.84209   1.000
    N5      N    0.88661   0.88646   0.09410   1.000
    N6      N    0.61352   0.88665   0.59437   1.000
    N7      N    0.38648   0.11336   0.40564   1.000
    N8      N    0.11336   0.11363   0.90588   1.000
    N9      N    0.11340   0.38658   0.40566   1.000
    N10     N    0.88656   0.61340   0.59437   1.000
    N11     N    0.38650   0.38658   0.90579   1.000
    N12     N    0.58168   0.91811   0.34204   1.000
    N13     N    0.91830   0.58185   0.34209   1.000
    Zr14    Zr   0.66592   0.66617   0.70745   1.000
    O15     O    0.73631   0.65008   0.67116   1.000
    O16     O    0.64994   0.73652   0.67118   1.000
    Zr17    Zr   0.33400   0.16616   0.79260   1.000
    O18     O    0.26360   0.15015   0.82895   1.000
    O19     O    0.35003   0.23649   0.82891   1.000
    Zr20    Zr   0.83404   0.83386   0.70744   1.000
    O21     O    0.76369   0.84996   0.67115   1.000
    O22     O    0.85006   0.76352   0.67116   1.000
    Zr23    Zr   0.49998   0.50000   0.00000   1.000
    O24     O    0.53903   0.53911   0.03261   1.000
    O25     O    0.46088   0.46092   0.96738   1.000
    Zr26    Zr   0.66594   0.83390   0.20736   1.000
    O27     O    0.73633   0.84992   0.17101   1.000
    O28     O    0.64986   0.76358   0.17104   1.000
    Zr29    Zr   0.16594   0.16613   0.29259   1.000
    O30     O    0.23630   0.15003   0.32888   1.000
    O31     O    0.14992   0.23647   0.32887   1.000
    Zr32    Zr   0.33405   0.33382   0.29258   1.000
    O33     O    0.35004   0.26347   0.32884   1.000
    O34     O    0.26366   0.34991   0.32888   1.000
    Zr35    Zr   0.83403   0.66604   0.20736   1.000
    O36     O    0.85009   0.73636   0.17103   1.000
    O37     O    0.76361   0.65001   0.17104   1.000
    Zr38    Zr   0.49999   0.00003   0.50004   1.000
    O39     O    0.53911   0.96096   0.53270   1.000
    O40     O    0.46087   0.03908   0.46736   1.000
    Zr41    Zr   0.99999   0.49998   0.50002   1.000
    O42     O    0.03907   0.46090   0.46735   1.000
    O43     O    0.96090   0.53906   0.53269   1.000
    Zr44    Zr   0.16598   0.33388   0.79265   1.000
    O45     O    0.14991   0.26361   0.82896   1.000
    O46     O    0.23634   0.34995   0.82896   1.000
    O47     O    0.52635   0.97357   0.44825   1.000
    O48     O    0.47363   0.02646   0.55179   1.000
    O49     O    0.86127   0.63883   0.25027   1.000
    O50     O    0.36130   0.36108   0.24970   1.000
    O51     O    0.97362   0.52642   0.44826   1.000
    O52     O    0.13873   0.36111   0.74975   1.000
    O53     O    0.02635   0.47354   0.55179   1.000
    O54     O    0.63871   0.86112   0.25025   1.000
    O55     O    0.63866   0.63892   0.75033   1.000
    O56     O    0.52631   0.52644   0.94824   1.000
    O57     O    0.47365   0.47358   0.05177   1.000
    O58     O    0.36125   0.13890   0.74971   1.000
loop_
    _geom_bond_atom_site_label_1
    _geom_bond_atom_site_label_2
    _geom_bond_distance
    _geom_bond_site_symmetry_2
    _ccdc_geom_bond_type
    Zr14   O15       1.14692      .   S
    N10    O15       2.45011      .   S
    Zr14   O16       1.14798      .   S
    N6     O16       2.45227      .   S
    Zr17   O18       1.14730      .   S
    N8     O18       2.45090      .   S
    Zr17   O19       1.14807      .   S
    N11    O19       2.45220      .   S
    Zr20   O21       1.14685      .   S
    N6     O21       2.44995      .   S
    Zr20   O22       1.14771      .   S
    N10    O22       2.45166      .   S
    Zr23   O24       0.91433      .   S
    N0     O24       1.73541      .   S
    Zr23   O25       0.91462  1_554   S
    N11    O25       1.73630      .   S
    Zr26   O27       1.14732      .   S
    N5     O27       2.45122      .   S
    Zr26   O28       1.14803      .   S
    N0     O28       2.45243      .   S
    Zr29   O30       1.14685      .   S
    N7     O30       2.44991      .   S
    Zr29   O31       1.14769      .   S
    N9     O31       2.45161      .   S
    Zr32   O33       1.14789      .   S
    N7     O33       2.45211      .   S
    Zr32   O34       1.14696      .   S
    N9     O34       2.45018      .   S
    Zr35   O36       1.14824      .   S
    N5     O36       2.45306      .   S
    Zr35   O37       1.14774      .   S
    N0     O37       2.45194      .   S
    Zr38   O39       0.91504  1_545   S
    N6     O39       1.73685      .   S
    Zr38   O40       0.91499      .   S
    N7     O40       1.73680      .   S
    Zr41   O42       0.91446  1_655   S
    N9     O42       1.73590      .   S
    Zr41   O43       0.91453      .   S
    N10    O43       1.73601      .   S
    Zr44   O45       1.14764      .   S
    N8     O45       2.45165      .   S
    Zr44   O46       1.14700      .   S
    N11    O46       2.45015      .   S
    Zr38   O47       0.92843  1_545   S
    N12    O47       1.91794      .   S
    Zr38   O48       0.92772      .   S
    N2     O48       1.91682      .   S
    Zr35   O49       0.83421      .   S
    N13    O49       1.76881      .   S
    Zr32   O50       0.83415      .   S
    N3     O50       1.76872      .   S
    N13    O51       1.91792      .   S
    Zr41   O51       0.92835      .   S
    N1     O52       1.76881      .   S
    Zr44   O52       0.83421      .   S
    N1     O53       1.91798      .   S
    Zr41   O53       0.92838  1_655   S
    Zr26   O54       0.83359      .   S
    N12    O54       1.76785      .   S
    N4     O55       1.76868      .   S
    Zr14   O55       0.83414      .   S
    N4     O56       1.91720      .   S
    Zr23   O56       0.92792  1_554   S
    N3     O57       1.91738      .   S
    Zr23   O57       0.92805      .   S
    Zr17   O58       0.83387      .   S
    N2     O58       1.76822      .   S
