# CIF file generated by openbabel 2.4.90, see http://openbabel.sf.net
data_I
_chemical_name_common ''
_cell_length_a 14.039
_cell_length_b 14.068
_cell_length_c 14.791
_cell_angle_alpha 90.014
_cell_angle_beta 89.981
_cell_angle_gamma 89.986
_space_group_name_H-M_alt 'P 1'
_space_group_name_Hall 'P 1'
loop_
    _symmetry_equiv_pos_as_xyz
    x,y,z
loop_
    _atom_site_label
    _atom_site_type_symbol
    _atom_site_fract_x
    _atom_site_fract_y
    _atom_site_fract_z
    _atom_site_occupancy
    N0      N    0.61329   0.61349   0.09417   1.000
    N1      N    0.08169   0.41811   0.65796   1.000
    N2      N    0.41831   0.08187   0.65794   1.000
    N3      N    0.08152   0.08190   0.15810   1.000
    N4      N    0.41837   0.41815   0.15794   1.000
    N5      N    0.91841   0.91808   0.84196   1.000
    N6      N    0.58158   0.58189   0.84209   1.000
    N7      N    0.88661   0.88646   0.09410   1.000
    N8      N    0.61352   0.88665   0.59437   1.000
    N9      N    0.38648   0.11336   0.40564   1.000
    N10     N    0.11336   0.11363   0.90588   1.000
    N11     N    0.11340   0.38658   0.40566   1.000
    N12     N    0.88656   0.61340   0.59437   1.000
    N13     N    0.38650   0.38658   0.90579   1.000
    N14     N    0.58168   0.91811   0.34204   1.000
    N15     N    0.91830   0.58185   0.34209   1.000
    Zr16    Zr   0.66592   0.66617   0.70745   1.000
    O17     O    0.73631   0.65008   0.67116   1.000
    O18     O    0.64994   0.73652   0.67118   1.000
    O19     O    0.64701   0.63059   0.75033   1.000
    O20     O    0.63031   0.64726   0.75034   1.000
    Zr21    Zr   0.33400   0.16616   0.79260   1.000
    O22     O    0.26360   0.15015   0.82895   1.000
    O23     O    0.35290   0.13057   0.74972   1.000
    O24     O    0.35003   0.23649   0.82891   1.000
    O25     O    0.36959   0.14724   0.74971   1.000
    Zr26    Zr   0.83404   0.83386   0.70744   1.000
    O27     O    0.86964   0.85275   0.75028   1.000
    O28     O    0.85296   0.86941   0.75028   1.000
    O29     O    0.76369   0.84996   0.67115   1.000
    O30     O    0.85006   0.76352   0.67116   1.000
    Zr31    Zr   0.49998   0.50000   0.00000   1.000
    O32     O    0.53903   0.53911   0.03261   1.000
    O33     O    0.46493   0.48226   0.05177   1.000
    O34     O    0.48238   0.46489   0.05178   1.000
    O35     O    0.46088   0.46092   0.96738   1.000
    O36     O    0.53503   0.51776   0.94825   1.000
    O37     O    0.51758   0.53512   0.94823   1.000
    Zr38    Zr   0.66594   0.83390   0.20736   1.000
    O39     O    0.63037   0.85279   0.25026   1.000
    O40     O    0.73633   0.84992   0.17101   1.000
    O41     O    0.64986   0.76358   0.17104   1.000
    O42     O    0.64705   0.86945   0.25025   1.000
    Zr43    Zr   0.16594   0.16613   0.29259   1.000
    O44     O    0.23630   0.15003   0.32888   1.000
    O45     O    0.14992   0.23647   0.32887   1.000
    O46     O    0.13033   0.14724   0.24977   1.000
    O47     O    0.14701   0.13057   0.24975   1.000
    Zr48    Zr   0.00003   0.99996   0.20000   1.000
    O49     O    0.03535   0.02575   0.18413   1.000
    O50     O    0.03504   0.01774   0.17681   1.000
    O51     O    0.02563   0.03544   0.18414   1.000
    O52     O    0.01756   0.03511   0.17687   1.000
    Zr53    Zr   0.33405   0.33382   0.29258   1.000
    O54     O    0.35004   0.26347   0.32884   1.000
    O55     O    0.36965   0.35275   0.24969   1.000
    O56     O    0.35295   0.36942   0.24970   1.000
    O57     O    0.26366   0.34991   0.32888   1.000
    Zr58    Zr   0.83403   0.66604   0.20736   1.000
    O59     O    0.85292   0.63049   0.25027   1.000
    O60     O    0.85009   0.73636   0.17103   1.000
    O61     O    0.86961   0.64716   0.25028   1.000
    O62     O    0.76361   0.65001   0.17104   1.000
    Zr63    Zr   0.49999   0.00003   0.50004   1.000
    O64     O    0.53507   0.98226   0.44825   1.000
    O65     O    0.53911   0.96096   0.53270   1.000
    O66     O    0.46087   0.03908   0.46736   1.000
    O67     O    0.46492   0.01777   0.55179   1.000
    O68     O    0.51763   0.96488   0.44825   1.000
    O69     O    0.48235   0.03515   0.55179   1.000
    Zr70    Zr   0.99999   0.49998   0.50002   1.000
    O71     O    0.03907   0.46090   0.46735   1.000
    O72     O    0.98234   0.53511   0.44825   1.000
    O73     O    0.96491   0.51773   0.44826   1.000
    O74     O    0.03507   0.48223   0.55178   1.000
    O75     O    0.01764   0.46486   0.55180   1.000
    O76     O    0.96090   0.53906   0.53269   1.000
    Zr77    Zr   0.16598   0.33388   0.79265   1.000
    O78     O    0.13039   0.35277   0.74975   1.000
    O79     O    0.14991   0.26361   0.82896   1.000
    O80     O    0.23634   0.34995   0.82896   1.000
    O81     O    0.14708   0.36945   0.74975   1.000
loop_
    _geom_bond_atom_site_label_1
    _geom_bond_atom_site_label_2
    _geom_bond_distance
    _geom_bond_site_symmetry_2
    _ccdc_geom_bond_type
    Zr16   O17       1.14692      .   S
    N12    O17       2.45011      .   S
    Zr16   O18       1.14798      .   S
    N8     O18       2.45227      .   S
    Zr16   O19       0.85058      .   S
    N6     O19       1.77632      .   S
    Zr16   O20       0.85032      .   S
    N6     O20       1.77654      .   S
    Zr21   O22       1.14730      .   S
    N10    O22       2.45090      .   S
    Zr21   O23       0.85028      .   S
    N2     O23       1.77590      .   S
    Zr21   O24       1.14807      .   S
    N13    O24       2.45220      .   S
    Zr21   O25       0.85008      .   S
    N2     O25       1.77604      .   S
    Zr26   O27       0.84973      .   S
    N5     O27       1.77556      .   S
    Zr26   O28       0.84989      .   S
    N5     O28       1.77548      .   S
    Zr26   O29       1.14685      .   S
    N8     O29       2.44995      .   S
    Zr26   O30       1.14771      .   S
    N12    O30       2.45166      .   S
    Zr31   O32       0.91433      .   S
    N0     O32       1.73541      .   S
    Zr31   O33       0.94379      .   S
    N4     O33       1.92536      .   S
    Zr31   O34       0.94426      .   S
    N4     O34       1.92497      .   S
    Zr31   O35       0.91462  1_554   S
    N13    O35       1.73630      .   S
    Zr31   O36       0.94355  1_554   S
    N6     O36       1.92528      .   S
    Zr31   O37       0.94427  1_554   S
    N6     O37       1.92469      .   S
    Zr38   O39       0.84980      .   S
    N14    O39       1.77567      .   S
    Zr38   O40       1.14732      .   S
    N7     O40       2.45122      .   S
    Zr38   O41       1.14803      .   S
    N0     O41       2.45243      .   S
    Zr38   O42       0.85000      .   S
    N14    O42       1.77554      .   S
    Zr43   O44       1.14685      .   S
    N9     O44       2.44991      .   S
    Zr43   O45       1.14769      .   S
    N11    O45       2.45161      .   S
    Zr43   O46       0.84973      .   S
    N3     O46       1.77560      .   S
    Zr43   O47       0.84991      .   S
    N3     O47       1.77550      .   S
    Zr48   O49       0.65782  1_565   S
    N3     O49       1.09197      .   S
    Zr48   O50       0.64939  1_565   S
    N3     O50       1.14780      .   S
    Zr48   O51       0.65830  1_565   S
    N3     O51       1.09151      .   S
    Zr48   O52       0.64970  1_565   S
    N3     O52       1.14756      .   S
    Zr53   O54       1.14789      .   S
    N9     O54       2.45211      .   S
    Zr53   O55       0.85035      .   S
    N4     O55       1.77657      .   S
    Zr53   O56       0.85058      .   S
    N4     O56       1.77638      .   S
    Zr53   O57       1.14696      .   S
    N11    O57       2.45018      .   S
    Zr58   O59       0.85063      .   S
    N15    O59       1.77646      .   S
    Zr58   O60       1.14824      .   S
    N7     O60       2.45306      .   S
    Zr58   O61       0.85041      .   S
    N15    O61       1.77666      .   S
    Zr58   O62       1.14774      .   S
    N0     O62       2.45194      .   S
    Zr63   O64       0.94419  1_545   S
    N14    O64       1.92590      .   S
    Zr63   O65       0.91504  1_545   S
    N8     O65       1.73685      .   S
    Zr63   O66       0.91499      .   S
    N9     O66       1.73680      .   S
    Zr63   O67       0.94348      .   S
    N2     O67       1.92479      .   S
    Zr63   O68       0.94464  1_545   S
    N14    O68       1.92556      .   S
    Zr63   O69       0.94394      .   S
    N2     O69       1.92444      .   S
    Zr70   O71       0.91446  1_655   S
    N11    O71       1.73590      .   S
    Zr70   O72       0.94457      .   S
    N15    O72       1.92549      .   S
    Zr70   O73       0.94407      .   S
    N15    O73       1.92591      .   S
    Zr70   O74       0.94410  1_655   S
    N1     O74       1.92598      .   S
    Zr70   O75       0.94461  1_655   S
    N1     O75       1.92554      .   S
    Zr70   O76       0.91453      .   S
    N12    O76       1.73601      .   S
    Zr77   O78       0.85040      .   S
    N1     O78       1.77667      .   S
    Zr77   O79       1.14764      .   S
    N10    O79       2.45165      .   S
    Zr77   O80       1.14700      .   S
    N13    O80       2.45015      .   S
    Zr77   O81       0.85065      .   S
    N1     O81       1.77645      .   S
