# CIF file generated by openbabel 2.4.90, see http://openbabel.sf.net
data_I
_chemical_name_common ''
_cell_length_a 15.841
_cell_length_b 16.164
_cell_length_c 22.838
_cell_angle_alpha 90.009
_cell_angle_beta 89.993
_cell_angle_gamma 89.94
_space_group_name_H-M_alt 'P 1'
_space_group_name_Hall 'P 1'
loop_
    _symmetry_equiv_pos_as_xyz
    x,y,z
loop_
    _atom_site_label
    _atom_site_type_symbol
    _atom_site_fract_x
    _atom_site_fract_y
    _atom_site_fract_z
    _atom_site_occupancy
    Zr0     Zr   0.68970   0.55916   0.25980   1.000
    Zr1     Zr   0.83312   0.44543   0.25261   1.000
    Zr2     Zr   0.18992   0.44090   0.74046   1.000
    Zr3     Zr   0.33330   0.55465   0.74754   1.000
    Zr4     Zr   0.68994   0.44092   0.75948   1.000
    Zr5     Zr   0.83334   0.55463   0.75240   1.000
    Zr6     Zr   0.18980   0.55907   0.24038   1.000
    Zr7     Zr   0.33337   0.44541   0.24740   1.000
    O8      O    0.76141   0.50230   0.25620   1.000
    O9      O    0.26161   0.49778   0.74400   1.000
    O10     O    0.76164   0.49777   0.75594   1.000
    O11     O    0.26158   0.50224   0.24389   1.000
    N12     N    0.51030   0.99816   0.76367   1.000
    O13     O    0.58232   0.19284   0.76281   1.000
    O14     O    0.43943   0.80318   0.75696   1.000
    N15     N    0.99755   0.70563   0.99147   1.000
    O16     O    0.86430   0.64505   0.10966   1.000
    O17     O    0.92484   0.59175   0.10388   1.000
    O18     O    0.07875   0.59000   0.88207   1.000
    O19     O    0.14030   0.64262   0.88152   1.000
    N20     N    0.49786   0.29462   0.00920   1.000
    O21     O    0.64038   0.35746   0.11897   1.000
    O22     O    0.36475   0.35562   0.89101   1.000
    O23     O    0.42575   0.40851   0.89648   1.000
    O24     O    0.57890   0.41019   0.11834   1.000
    N25     N    0.53398   0.28053   0.51101   1.000
    O26     O    0.66741   0.35304   0.40051   1.000
    O27     O    0.60048   0.39888   0.40052   1.000
    O28     O    0.44940   0.39627   0.61665   1.000
    O29     O    0.38368   0.34945   0.61056   1.000
    N30     N    0.51020   0.00186   0.26407   1.000
    O31     O    0.43947   0.19688   0.25707   1.000
    O32     O    0.58209   0.80716   0.26338   1.000
    N33     N    0.03386   0.71928   0.48910   1.000
    O34     O    0.94926   0.60373   0.38340   1.000
    O35     O    0.10048   0.60096   0.59959   1.000
    O36     O    0.88339   0.65023   0.38990   1.000
    O37     O    0.16733   0.64686   0.59963   1.000
    N38     N    0.49792   0.70541   0.50867   1.000
    O39     O    0.36463   0.64437   0.39069   1.000
    O40     O    0.57896   0.58993   0.61798   1.000
    O41     O    0.42576   0.59152   0.39614   1.000
    O42     O    0.64053   0.64252   0.61854   1.000
    N43     N    0.01020   0.00194   0.23612   1.000
    O44     O    0.93938   0.19695   0.24296   1.000
    O45     O    0.08216   0.80719   0.23696   1.000
    N46     N    0.53392   0.71937   0.01100   1.000
    O47     O    0.66737   0.64689   0.90039   1.000
    O48     O    0.38359   0.65049   0.11050   1.000
    O49     O    0.60051   0.60100   0.90043   1.000
    O50     O    0.44939   0.60370   0.11657   1.000
    N51     N    0.99796   0.29455   0.49074   1.000
    O52     O    0.07892   0.41003   0.38164   1.000
    O53     O    0.92581   0.40847   0.60346   1.000
    O54     O    0.86481   0.35559   0.60893   1.000
    O55     O    0.14059   0.35747   0.38103   1.000
    N56     N    0.01037   0.99812   0.73627   1.000
    O57     O    0.08236   0.19281   0.73709   1.000
    O58     O    0.93950   0.80314   0.74302   1.000
    N59     N    0.03396   0.28057   0.98891   1.000
    O60     O    0.16744   0.35308   0.09946   1.000
    O61     O    0.88366   0.34946   0.88937   1.000
    O62     O    0.10050   0.39896   0.09946   1.000
    O63     O    0.94940   0.39626   0.88328   1.000
loop_
    _geom_bond_atom_site_label_1
    _geom_bond_atom_site_label_2
    _geom_bond_distance
    _geom_bond_site_symmetry_2
    _ccdc_geom_bond_type
    Zr0    O8        1.46282      .   S
    Zr1    O8        1.46282      .   S
    Zr2    O9        1.46408      .   S
    Zr3    O9        1.46408      .   S
    Zr4    O10       1.46407      .   S
    Zr5    O10       1.46407      .   S
    Zr6    O11       1.46330      .   S
    Zr7    O11       1.46330      .   S
    N12    O13       3.34838  1_565   S
    Zr4    O13       4.35953      .   S
    N12    O14       3.35025      .   S
    Zr3    O14       4.36172      .   S
    N15    O16       3.56417  1_556   S
    Zr0    O16       4.61983      .   S
    N15    O17       3.36310  1_556   S
    Zr1    O17       4.38753      .   S
    N15    O18       3.37389  1_655   S
    Zr2    O18       4.39951      .   S
    N15    O19       3.52828  1_655   S
    Zr3    O19       4.55186      .   S
    N20    O21       3.52404      .   S
    Zr1    O21       4.54636      .   S
    N20    O22       3.56402  1_554   S
    Zr2    O22       4.62465      .   S
    N20    O23       3.36426  1_554   S
    Zr3    O23       4.39227      .   S
    N20    O24       3.36966      .   S
    Zr0    O24       4.39586      .   S
    N25    O26       3.49501      .   S
    Zr1    O26       4.53188      .   S
    N25    O27       3.33790      .   S
    Zr0    O27       4.36432      .   S
    N25    O28       3.33280      .   S
    Zr3    O28       4.34269      .   S
    N25    O29       3.47433      .   S
    Zr2    O29       4.51590      .   S
    N30    O31       3.34819      .   S
    Zr7    O31       4.35870      .   S
    N30    O32       3.34574  1_545   S
    Zr0    O32       4.35518      .   S
    N33    O34       3.33405  1_455   S
    Zr1    O34       4.34312      .   S
    N33    O35       3.33724      .   S
    Zr2    O35       4.36424      .   S
    N33    O36       3.47358  1_455   S
    Zr0    O36       4.51889      .   S
    N33    O37       3.49425      .   S
    Zr3    O37       4.53206      .   S
    N38    O39       3.56322      .   S
    Zr6    O39       4.62208      .   S
    N38    O40       3.37078      .   S
    Zr4    O40       4.39655      .   S
    N38    O41       3.36197      .   S
    Zr7    O41       4.38932      .   S
    N38    O42       3.52569      .   S
    Zr5    O42       4.54838      .   S
    N43    O44       3.34844  1_455   S
    Zr1    O44       4.35876      .   S
    N43    O45       3.34681  1_545   S
    Zr6    O45       4.35718      .   S
    N46    O47       3.49501  1_554   S
    Zr5    O47       4.53291      .   S
    N46    O48       3.47550      .   S
    Zr6    O48       4.51836      .   S
    N46    O49       3.33813  1_554   S
    Zr4    O49       4.36504      .   S
    N46    O50       3.33292      .   S
    Zr7    O50       4.34312      .   S
    N51    O52       3.36800  1_655   S
    Zr6    O52       4.39376      .   S
    N51    O53       3.36423      .   S
    Zr5    O53       4.39160      .   S
    N51    O54       3.56398      .   S
    Zr4    O54       4.62448      .   S
    N51    O55       3.52430  1_655   S
    Zr7    O55       4.54624      .   S
    N56    O57       3.34835  1_565   S
    Zr2    O57       4.35952      .   S
    N56    O58       3.35022  1_455   S
    Zr5    O58       4.36170      .   S
    N59    O60       3.49630  1_556   S
    Zr7    O60       4.53435      .   S
    N59    O61       3.47454  1_455   S
    Zr4    O61       4.51632      .   S
    N59    O62       3.33912  1_556   S
    Zr6    O62       4.36617      .   S
    N59    O63       3.33274  1_455   S
    Zr5    O63       4.34305      .   S
