# CIF file generated by openbabel 2.4.90, see http://openbabel.sf.net
data_I
_chemical_name_common ''
_cell_length_a 18.604
_cell_length_b 19.052
_cell_length_c 19.059
_cell_angle_alpha 70.331
_cell_angle_beta 70.885
_cell_angle_gamma 108.967
_space_group_name_H-M_alt 'P 1'
_space_group_name_Hall 'P 1'
loop_
    _symmetry_equiv_pos_as_xyz
    x,y,z
loop_
    _atom_site_label
    _atom_site_type_symbol
    _atom_site_fract_x
    _atom_site_fract_y
    _atom_site_fract_z
    _atom_site_occupancy
    H0      H    0.42035   0.70090   0.30830   1.000
    H1      H    0.18666   0.59354   0.25268   1.000
    H2      H    0.15956   0.51326   0.17481   1.000
    H3      H    0.27436   0.48054   0.10463   1.000
    H4      H    0.52354   0.65627   0.24377   1.000
    H5      H    0.28201   0.66148   0.30171   1.000
    H6      H    0.49302   0.57569   0.16823   1.000
    H7      H    0.72417   0.30303   0.99350   1.000
    H8      H    0.43640   0.25075   0.15823   1.000
    H9      H    0.33316   0.17502   0.31601   1.000
    H10     H    0.37897   0.10573   0.41743   1.000
    H11     H    0.76397   0.23925   0.10125   1.000
    H12     H    0.57979   0.29791   0.04064   1.000
    H13     H    0.65958   0.16608   0.25704   1.000
    H14     H    0.71709   0.99350   0.70317   1.000
    H15     H    0.59329   0.15742   0.59255   1.000
    H16     H    0.64804   0.31500   0.51025   1.000
    H17     H    0.79594   0.41681   0.47708   1.000
    H18     H    0.86542   0.10145   0.65777   1.000
    H19     H    0.61922   0.04020   0.66243   1.000
    H20     H    0.91700   0.25707   0.57504   1.000
    H21     H    0.77568   0.99365   0.30300   1.000
    H22     H    0.06322   0.15791   0.25108   1.000
    H23     H    0.16651   0.31557   0.17515   1.000
    H24     H    0.12088   0.41711   0.10563   1.000
    H25     H    0.73608   0.10151   0.23921   1.000
    H26     H    0.91992   0.04055   0.29827   1.000
    H27     H    0.84049   0.25718   0.16584   1.000
    H28     H    0.78348   0.70353   0.99332   1.000
    H29     H    0.90720   0.59263   0.15703   1.000
    H30     H    0.85219   0.50989   0.31467   1.000
    H31     H    0.70410   0.47660   0.41667   1.000
    H32     H    0.63482   0.65765   0.10145   1.000
    H33     H    0.88146   0.66286   0.03988   1.000
    H34     H    0.58308   0.57472   0.25709   1.000
    H35     H    0.07932   0.30830   0.70091   1.000
    H36     H    0.31296   0.25202   0.59350   1.000
    H37     H    0.34001   0.17393   0.51339   1.000
    H38     H    0.22530   0.10403   0.48070   1.000
    H39     H    0.97614   0.24384   0.65651   1.000
    H40     H    0.21766   0.30147   0.66133   1.000
    H41     H    0.00675   0.16824   0.57590   1.000
    H42     H    0.57962   0.29909   0.69170   1.000
    H43     H    0.81332   0.40645   0.74732   1.000
    H44     H    0.84042   0.48673   0.82519   1.000
    H45     H    0.72562   0.51945   0.89537   1.000
    H46     H    0.47644   0.34373   0.75623   1.000
    H47     H    0.71796   0.33851   0.69829   1.000
    H48     H    0.50696   0.42431   0.83177   1.000
    H49     H    0.27580   0.69696   0.00650   1.000
    H50     H    0.56358   0.74924   0.84178   1.000
    H51     H    0.66682   0.82497   0.68400   1.000
    H52     H    0.62101   0.89427   0.58258   1.000
    H53     H    0.23601   0.76074   0.89875   1.000
    H54     H    0.42019   0.70209   0.95937   1.000
    H55     H    0.34039   0.83392   0.74297   1.000
    H56     H    0.28288   0.00650   0.29684   1.000
    H57     H    0.40669   0.84258   0.40746   1.000
    H58     H    0.35194   0.68500   0.48975   1.000
    H59     H    0.20404   0.58319   0.52292   1.000
    H60     H    0.13455   0.89855   0.34223   1.000
    H61     H    0.38075   0.95980   0.33757   1.000
    H62     H    0.08298   0.74293   0.42496   1.000
    H63     H    0.22429   0.00635   0.69671   1.000
    H64     H    0.93676   0.84208   0.74893   1.000
    H65     H    0.83347   0.68443   0.82485   1.000
    H66     H    0.87910   0.58288   0.89438   1.000
    H67     H    0.26390   0.89849   0.76079   1.000
    C68     C    0.80062   0.12308   0.23345   1.000
    C69     C    0.96365   0.17523   0.22524   1.000
    C70     C    0.90265   0.08696   0.26744   1.000
    C71     C    0.94145   0.23746   0.18610   1.000
    H72     H    0.08005   0.95945   0.70173   1.000
    H73     H    0.15949   0.74282   0.83416   1.000
    H74     H    0.21650   0.29647   0.00668   1.000
    H75     H    0.09277   0.40736   0.84298   1.000
    H76     H    0.14779   0.49010   0.68534   1.000
    H77     H    0.29588   0.52340   0.58334   1.000
    H78     H    0.36515   0.34234   0.89856   1.000
    H79     H    0.11851   0.33713   0.96013   1.000
    H80     H    0.41689   0.42527   0.74291   1.000
    H81     H    0.92066   0.69169   0.29900   1.000
    H82     H    0.68701   0.74797   0.40650   1.000
    H83     H    0.65997   0.82606   0.48662   1.000
    H84     H    0.77467   0.89597   0.51928   1.000
    H85     H    0.02383   0.75615   0.34349   1.000
    H86     H    0.78231   0.69853   0.33860   1.000
    H87     H    0.99323   0.83176   0.42410   1.000
    C88     C    0.54618   0.77911   0.79518   1.000
    C89     C    0.60279   0.82050   0.70860   1.000
    C90     C    0.57720   0.85875   0.65139   1.000
    C91     C    0.30062   0.76655   0.87708   1.000
    C92     C    0.46381   0.77485   0.82466   1.000
    C93     C    0.40605   0.66647   0.27482   1.000
    C94     C    0.23374   0.57651   0.22242   1.000
    C95     C    0.21878   0.53235   0.17983   1.000
    C96     C    0.28241   0.51297   0.14114   1.000
    C97     C    0.46523   0.64162   0.23724   1.000
    C98     C    0.31141   0.60038   0.22730   1.000
    C99     C    0.32996   0.64557   0.27067   1.000
    C100    C    0.37253   0.57685   0.18785   1.000
    C101    C    0.44915   0.59745   0.19470   1.000
    C102    C    0.67710   0.27056   0.06131   1.000
    C103    C    0.45380   0.22088   0.20483   1.000
    C104    C    0.39719   0.17950   0.29141   1.000
    C105    C    0.42277   0.14124   0.34862   1.000
    C106    C    0.69936   0.23344   0.12292   1.000
    C107    C    0.53617   0.22515   0.17535   1.000
    C108    C    0.59713   0.26719   0.08700   1.000
    C109    C    0.55844   0.18609   0.23751   1.000
    C110    C    0.64175   0.19228   0.20936   1.000
    C111    C    0.73791   0.06125   0.66780   1.000
    C112    C    0.65763   0.20415   0.57520   1.000
    C113    C    0.68769   0.29063   0.52990   1.000
    C114    C    0.77088   0.34804   0.51033   1.000
    C115    C    0.82222   0.12298   0.64255   1.000
    C116    C    0.71079   0.17494   0.59984   1.000
    C117    C    0.68329   0.08669   0.64619   1.000
    C118    C    0.79568   0.23727   0.57597   1.000
    C119    C    0.85116   0.20933   0.59719   1.000
    C120    C    0.82279   0.06141   0.27072   1.000
    C121    C    0.04591   0.20457   0.22100   1.000
    C122    C    0.10256   0.29108   0.17958   1.000
    C123    C    0.07706   0.34836   0.14121   1.000
    C124    C    0.85826   0.20945   0.19215   1.000
    C125    C    0.76257   0.66800   0.06108   1.000
    C126    C    0.84276   0.57516   0.20385   1.000
    C127    C    0.81256   0.52970   0.29035   1.000
    C128    C    0.72924   0.50997   0.34787   1.000
    C129    C    0.67808   0.64250   0.12291   1.000
    C130    C    0.78960   0.59989   0.17472   1.000
    C131    C    0.81724   0.64643   0.08640   1.000
    C132    C    0.70455   0.57581   0.23715   1.000
    C133    C    0.64904   0.59702   0.20928   1.000
    C134    C    0.09364   0.27476   0.66650   1.000
    C135    C    0.26590   0.22186   0.57653   1.000
    C136    C    0.28084   0.17916   0.53244   1.000
    C137    C    0.21726   0.14061   0.51311   1.000
    C138    C    0.03446   0.23722   0.64178   1.000
    C139    C    0.18828   0.22704   0.60037   1.000
    C140    C    0.16972   0.27045   0.64552   1.000
    C141    C    0.12719   0.18762   0.57695   1.000
    C142    C    0.05059   0.19473   0.59760   1.000
    C143    C    0.59393   0.33352   0.72518   1.000
    C144    C    0.76624   0.42348   0.77758   1.000
    C145    C    0.78120   0.46764   0.82017   1.000
    C146    C    0.71757   0.48702   0.85880   1.000
    C147    C    0.53474   0.35837   0.76276   1.000
    C148    C    0.68856   0.39962   0.77266   1.000
    C149    C    0.67002   0.35443   0.72933   1.000
    C150    C    0.62745   0.42314   0.81210   1.000
    C151    C    0.55083   0.40255   0.80521   1.000
    C152    C    0.32288   0.72944   0.93870   1.000
    C153    C    0.40284   0.73280   0.91301   1.000
    C154    C    0.44154   0.81390   0.76249   1.000
    C155    C    0.35822   0.80771   0.79064   1.000
    C156    C    0.26207   0.93875   0.33220   1.000
    C157    C    0.34235   0.79585   0.42480   1.000
    C158    C    0.31229   0.70937   0.47005   1.000
    C159    C    0.22910   0.65196   0.48967   1.000
    C160    C    0.17776   0.87702   0.35745   1.000
    C161    C    0.28919   0.82506   0.40010   1.000
    C162    C    0.31668   0.91331   0.35381   1.000
    C163    C    0.20430   0.76273   0.42400   1.000
    C164    C    0.14882   0.79067   0.40281   1.000
    C165    C    0.17719   0.93859   0.72928   1.000
    C166    C    0.95407   0.79543   0.77891   1.000
    C167    C    0.89742   0.70892   0.82042   1.000
    C168    C    0.92292   0.65164   0.85880   1.000
    C169    C    0.19935   0.87692   0.76655   1.000
    C170    C    0.03632   0.82477   0.77470   1.000
    C171    C    0.09733   0.91304   0.73256   1.000
    C172    C    0.05853   0.76254   0.81390   1.000
    C173    C    0.14172   0.79055   0.80785   1.000
    C174    C    0.23741   0.33200   0.93893   1.000
    C175    C    0.15722   0.42483   0.79615   1.000
    C176    C    0.18741   0.47030   0.70965   1.000
    C177    C    0.27073   0.49002   0.65214   1.000
    C178    C    0.32190   0.35750   0.87700   1.000
    C179    C    0.21037   0.40010   0.82528   1.000
    C180    C    0.18274   0.35357   0.91356   1.000
    C181    C    0.29542   0.42418   0.76285   1.000
    C182    C    0.35094   0.40298   0.79072   1.000
    C183    C    0.90633   0.72524   0.33351   1.000
    C184    C    0.73408   0.77814   0.42347   1.000
    C185    C    0.71914   0.82083   0.46757   1.000
    C186    C    0.78272   0.85938   0.48600   1.000
    C187    C    0.96551   0.76278   0.35822   1.000
    C188    C    0.81169   0.77295   0.39963   1.000
    C189    C    0.83026   0.72954   0.35448   1.000
    C190    C    0.87279   0.81238   0.42305   1.000
    C191    C    0.94939   0.80527   0.40240   1.000
    N192    N    0.35677   0.53422   0.14410   1.000
    N193    N    0.49987   0.14357   0.32374   1.000
    N194    N    0.82337   0.32342   0.53233   1.000
    N195    N    0.00007   0.32361   0.14345   1.000
    N196    N    0.67676   0.53206   0.32330   1.000
    N197    N    0.14296   0.14381   0.53432   1.000
    N198    N    0.64321   0.46577   0.85590   1.000
    N199    N    0.50011   0.85643   0.67627   1.000
    N200    N    0.17661   0.67658   0.46767   1.000
    N201    N    0.99991   0.67639   0.85650   1.000
    N202    N    0.32321   0.46793   0.67668   1.000
    N203    N    0.85702   0.85618   0.46568   1.000
loop_
    _geom_bond_atom_site_label_1
    _geom_bond_atom_site_label_2
    _geom_bond_distance
    _geom_bond_site_symmetry_2
    _ccdc_geom_bond_type
    H49    C152      1.08995  1_554   S
    H74    C174      1.09009  1_554   S
    H33    C131      1.08994      .   S
    H12    C108      1.09026      .   S
    C125   C131      1.37686      .   S
    C125   C129      1.41438      .   S
    C125   H28       1.09025  1_554   S
    C102   C108      1.37727      .   S
    C102   C106      1.41431      .   S
    C102   H7        1.09009  1_554   S
    C131   C130      1.41989      .   S
    C108   C107      1.41918      .   S
    H11    C106      1.08868      .   S
    H32    C129      1.08875      .   S
    H3     C96       1.08898      .   S
    H24    C123      1.08912      .   S
    C129   C133      1.38039      .   S
    C106   C110      1.38033      .   S
    C96    N192      1.33538      .   S
    C96    C95       1.40603      .   S
    C123   N195      1.33527      .   S
    C123   C122      1.40614      .   S
    N195   C71       1.37899  1_455   S
    N192   C100      1.37916      .   S
    H29    C126      1.08836      .   S
    H8     C103      1.08863      .   S
    H27    C124      1.08841      .   S
    H6     C101      1.08786      .   S
    C130   C126      1.41228      .   S
    C130   C132      1.43436      .   S
    H2     C95       1.08960      .   S
    H23    C122      1.08960      .   S
    C107   C103      1.41245      .   S
    C107   C109      1.43436      .   S
    C122   C121      1.37850      .   S
    C95    C94       1.37825      .   S
    C71    C124      1.41353      .   S
    C71    C69       1.43448      .   S
    C100   C101      1.41273      .   S
    C100   C98       1.43423      .   S
    C124   C68       1.38038      .   S
    C101   C97       1.38194      .   S
    C126   C127      1.37828      .   S
    C103   C104      1.37839      .   S
    C133   C132      1.41353      .   S
    C133   H34       1.08843      .   S
    C110   C109      1.41350      .   S
    C110   H13       1.08850      .   S
    C121   C69       1.41184  1_455   S
    C121   H22       1.08931      .   S
    C94    C98       1.41180      .   S
    C94    H1        1.08849      .   S
    C69    C70       1.41920      .   S
    C98    C99       1.41996      .   S
    C68    H25       1.08867      .   S
    C68    C120      1.41437      .   S
    C132   N196      1.37863      .   S
    C97    H4        1.08858      .   S
    C97    C93       1.41425      .   S
    C109   N193      1.37902      .   S
    C70    C120      1.37723      .   S
    C70    H26       1.09031      .   S
    C99    C93       1.37719      .   S
    C99    H5        1.09021      .   S
    C120   H21       1.09084  1_545   S
    C93    H0        1.08986      .   S
    C127   H30       1.08966      .   S
    C127   C128      1.40605      .   S
    C104   H9        1.08964      .   S
    C104   C105      1.40615      .   S
    H56    C156      1.09029  1_545   S
    H81    C183      1.09134      .   S
    N196   C128      1.33548      .   S
    N193   C105      1.33525      .   S
    C156   C162      1.37729      .   S
    C156   C160      1.41439      .   S
    C183   C189      1.37718      .   S
    C183   C187      1.41415      .   S
    H61    C162      1.09025      .   S
    H86    C189      1.09127      .   S
    H60    C160      1.08872      .   S
    H85    C187      1.08879  1_455   S
    C128   H31       1.08911      .   S
    C105   H10       1.08909      .   S
    C162   C161      1.41908      .   S
    C189   C188      1.41912      .   S
    C160   C164      1.38049      .   S
    C187   C191      1.38044      .   S
    C188   C190      1.43467      .   S
    C188   C184      1.41231      .   S
    C161   C163      1.43429      .   S
    C161   C157      1.41280      .   S
    C191   C190      1.41350      .   S
    C191   H87       1.08844      .   S
    C164   C163      1.41323      .   S
    C164   H62       1.08837      .   S
    H82    C184      1.08857      .   S
    H57    C157      1.08852      .   S
    C190   N203      1.37923      .   S
    C184   C185      1.37830      .   S
    C163   N200      1.37910      .   S
    C157   C158      1.37832      .   S
    N203   C186      1.33583      .   S
    C185   C186      1.39391      .   S
    C185   H83       1.08959      .   S
    N200   C159      1.33524      .   S
    C158   C159      1.40601      .   S
    C158   H58       1.08963      .   S
    H17    C114      1.08913      .   S
    H38    C137      1.08943      .   S
    C186   H84       1.10171      .   S
    C159   H59       1.08912      .   S
    H16    C113      1.08924      .   S
    C114   C113      1.40634      .   S
    C114   N194      1.33523      .   S
    C137   C136      1.40608      .   S
    C137   N197      1.33536      .   S
    H37    C136      1.08960      .   S
    C113   C112      1.37840      .   S
    N194   C118      1.37906      .   S
    C136   C135      1.37818      .   S
    N197   C141      1.37925      .   S
    H20    C119      1.08838      .   S
    C112   H15       1.08847      .   S
    C112   C116      1.41234      .   S
    H41    C142      1.08844      .   S
    C118   C119      1.41349      .   S
    C118   C116      1.43444      .   S
    C135   H36       1.08856      .   S
    C135   C139      1.41230      .   S
    C141   C142      1.41349      .   S
    C141   C139      1.43465      .   S
    H52    C90       1.08909      .   S
    H77    C177      1.08911      .   S
    C119   C115      1.38047      .   S
    C142   C138      1.38043      .   S
    C116   C117      1.41920      .   S
    C139   C140      1.41913      .   S
    C138   H39       1.08878  1_455   S
    C138   C134      1.41429      .   S
    C115   H18       1.08873      .   S
    C115   C111      1.41439      .   S
    C140   H40       1.09030      .   S
    C140   C134      1.37716      .   S
    C117   H19       1.09023      .   S
    C117   C111      1.37732      .   S
    C90    N199      1.33525      .   S
    C90    C89       1.40615      .   S
    C177   N202      1.33520      .   S
    C177   C176      1.40598      .   S
    C134   H35       1.08996      .   S
    C111   H14       1.09028  1_545   S
    N199   C154      1.37888      .   S
    N202   C181      1.37896      .   S
    H51    C89       1.08964      .   S
    H76    C176      1.08955      .   S
    H42    C143      1.08988      .   S
    H63    C165      1.09031  1_545   S
    H47    C149      1.09022      .   S
    H72    C171      1.09033      .   S
    C89    C88       1.37840      .   S
    C176   C175      1.37828      .   S
    C143   C149      1.37719      .   S
    C143   C147      1.41427      .   S
    C165   C171      1.37723      .   S
    C165   C169      1.41435      .   S
    C149   C148      1.41926      .   S
    C171   C170      1.41930      .   S
    H80    C182      1.08843      .   S
    H55    C155      1.08835      .   S
    H43    C144      1.08850      .   S
    H64    C166      1.08863      .   S
    H46    C147      1.08857      .   S
    H67    C169      1.08869      .   S
    C154   C155      1.41349      .   S
    C154   C92       1.43451      .   S
    C147   C151      1.38044      .   S
    C181   C182      1.41353      .   S
    C181   C179      1.43437      .   S
    C169   C173      1.38039      .   S
    C148   C144      1.41221      .   S
    C148   C150      1.43419      .   S
    C170   C166      1.41210  1_455   S
    C170   C172      1.43484      .   S
    C144   C145      1.37823      .   S
    C166   C167      1.37835      .   S
    C155   C91       1.38034      .   S
    C182   C178      1.37893      .   S
    C88    C92       1.41244      .   S
    C88    H50       1.08865      .   S
    C175   C179      1.41227      .   S
    C175   H75       1.08843      .   S
    C151   C150      1.41316      .   S
    C151   H48       1.08847      .   S
    C173   C172      1.41355      .   S
    C173   H73       1.08841      .   S
    C150   N198      1.37994      .   S
    C172   N201      1.37906  1_455   S
    C145   H44       1.08962      .   S
    C145   C146      1.40566      .   S
    C167   H65       1.08962      .   S
    C167   C168      1.40619      .   S
    C92    C153      1.41918      .   S
    C179   C180      1.41924      .   S
    N198   C146      1.33486      .   S
    N201   C168      1.33478      .   S
    C146   H45       1.08995      .   S
    C168   H66       1.08911      .   S
    C178   H78       1.08975      .   S
    C178   C174      1.41505      .   S
    C91    H53       1.08866      .   S
    C91    C152      1.41444      .   S
    C153   C152      1.37728      .   S
    C153   H54       1.09026      .   S
    C180   C174      1.37735      .   S
    C180   H79       1.09028      .   S
