# CIF file generated by openbabel 2.4.90, see http://openbabel.sf.net
data_I
_chemical_name_common ''
_cell_length_a 18.604
_cell_length_b 19.052
_cell_length_c 19.059
_cell_angle_alpha 70.331
_cell_angle_beta 70.885
_cell_angle_gamma 108.967
_space_group_name_H-M_alt 'P 1'
_space_group_name_Hall 'P 1'
loop_
    _symmetry_equiv_pos_as_xyz
    x,y,z
loop_
    _atom_site_label
    _atom_site_type_symbol
    _atom_site_fract_x
    _atom_site_fract_y
    _atom_site_fract_z
    _atom_site_occupancy
    Zn0     Zn   0.51392   0.06924   0.42196   1.000
    Zn1     Zn   0.93594   0.42207   0.50805   1.000
    Zn2     Zn   0.98605   0.42192   0.06920   1.000
    Zn3     Zn   0.56414   0.50791   0.42211   1.000
    Zn4     Zn   0.05530   0.06948   0.50919   1.000
    Zn5     Zn   0.55548   0.49089   0.93045   1.000
    Zn6     Zn   0.48605   0.93075   0.57805   1.000
    Zn7     Zn   0.06404   0.57793   0.49195   1.000
    Zn8     Zn   0.01393   0.57808   0.93081   1.000
    Zn9     Zn   0.43583   0.49208   0.57790   1.000
    Zn10    Zn   0.94468   0.93052   0.49081   1.000
    Zn11    Zn   0.44450   0.50911   0.06955   1.000
    C12     C    0.56724   0.45649   0.09925   1.000
    C13     C    0.37857   0.34083   0.07574   1.000
    C14     C    0.66658   0.09942   0.44445   1.000
    C15     C    0.45394   0.07536   0.58458   1.000
    C16     C    0.11112   0.44415   0.45572   1.000
    C17     C    0.03835   0.58385   0.34094   1.000
    C18     C    0.83331   0.44448   0.09954   1.000
    C19     C    0.04593   0.58428   0.07547   1.000
    O20     O    0.97449   0.49408   0.88739   1.000
    O21     O    0.11967   0.48847   0.97380   1.000
    O22     O    0.95224   0.37503   0.99416   1.000
    O23     O    0.53685   0.53309   0.60340   1.000
    O24     O    0.48002   0.61865   0.49422   1.000
    O25     O    0.63117   0.53703   0.48884   1.000
    O26     O    0.57705   0.62937   0.37562   1.000
    O27     O    0.00000   0.86447   0.53126   1.000
    C28     C    0.38896   0.45570   0.44433   1.000
    C29     C    0.46163   0.34097   0.58402   1.000
    C30     C    0.93258   0.09927   0.45670   1.000
    C31     C    0.12149   0.07581   0.34063   1.000
    C32     C    0.43274   0.54351   0.90075   1.000
    C33     C    0.62141   0.65917   0.92426   1.000
    C34     C    0.33340   0.90058   0.55550   1.000
    C35     C    0.54604   0.92463   0.41543   1.000
    C36     C    0.88885   0.55585   0.54428   1.000
    C37     C    0.96163   0.41615   0.65906   1.000
    C38     C    0.16667   0.55552   0.90046   1.000
    C39     C    0.95405   0.41572   0.92453   1.000
    C40     C    0.61102   0.54429   0.55568   1.000
    C41     C    0.53834   0.65902   0.41598   1.000
    C42     C    0.06739   0.90072   0.54330   1.000
    C43     C    0.87849   0.92419   0.65937   1.000
    O44     O    0.50483   0.46849   0.13550   1.000
    O45     O    0.36136   0.38198   0.11323   1.000
    O46     O    0.59401   0.46283   0.02559   1.000
    O47     O    0.44641   0.36974   0.00000   1.000
    O48     O    0.64041   0.13553   0.39646   1.000
    O49     O    0.47421   0.11242   0.50625   1.000
    O50     O    0.61960   0.02610   0.51153   1.000
    O51     O    0.45201   0.00000   0.62525   1.000
    O52     O    0.03705   0.39643   0.46696   1.000
    O53     O    0.98014   0.50565   0.38142   1.000
    O54     O    0.13111   0.51106   0.46280   1.000
    O55     O    0.07691   0.62429   0.37052   1.000
    O56     O    0.85949   0.39647   0.13565   1.000
    O57     O    0.02549   0.50592   0.11262   1.000
    O58     O    0.88031   0.51153   0.02619   1.000
    O59     O    0.04775   0.62497   0.00000   1.000
    O60     O    0.46313   0.46690   0.39660   1.000
    O61     O    0.51995   0.38134   0.50579   1.000
    O62     O    0.36880   0.46296   0.51117   1.000
    O63     O    0.42292   0.37062   0.62439   1.000
    O64     O    0.99485   0.13552   0.46874   1.000
    O65     O    0.13850   0.11315   0.38190   1.000
    O66     O    0.90609   0.02570   0.46291   1.000
    O67     O    0.05381   0.00000   0.36952   1.000
    O68     O    0.49515   0.53150   0.86445   1.000
    O69     O    0.63862   0.61802   0.88677   1.000
    O70     O    0.40598   0.53717   0.97441   1.000
    O71     O    0.55357   0.63026   0.99417   1.000
    O72     O    0.35957   0.86447   0.60355   1.000
    O73     O    0.52576   0.88758   0.49376   1.000
    O74     O    0.38037   0.97390   0.48848   1.000
    O75     O    0.54797   0.99435   0.37476   1.000
    O76     O    0.96293   0.60357   0.53304   1.000
    O77     O    0.01985   0.49435   0.61858   1.000
    O78     O    0.86887   0.48894   0.53700   1.000
    O79     O    0.92307   0.37571   0.62948   1.000
    O80     O    0.14049   0.60353   0.86436   1.000
    O81     O    0.86148   0.88685   0.61810   1.000
    O82     O    0.09389   0.97430   0.53709   1.000
    O83     O    0.94617   0.99411   0.63048   1.000
loop_
    _geom_bond_atom_site_label_1
    _geom_bond_atom_site_label_2
    _geom_bond_distance
    _geom_bond_site_symmetry_2
    _ccdc_geom_bond_type
    O47    C13       1.34154      .   S
    O47    Zn5       2.08241  1_554   S
    O59    C19       1.36800      .   S
    O59    Zn8       1.97588  1_554   S
    O46    C12       1.27368      .   S
    O46    Zn5       2.12958  1_554   S
    O58    C18       1.27357      .   S
    O58    Zn8       2.12881  1_654   S
    Zn2    O57       2.07613  1_655   S
    Zn2    O56       2.06744      .   S
    Zn2    O21       2.12892  1_654   S
    Zn2    O22       2.07928  1_554   S
    Zn11   O45       2.07750      .   S
    Zn11   O44       2.06700      .   S
    Zn11   O70       2.12953  1_554   S
    Zn11   O71       2.07919  1_554   S
    C19    O57       1.27195      .   S
    C13    O45       1.27204      .   S
    C12    O44       1.27728      .   S
    C18    O56       1.27779      .   S
    C31    O67       1.34275      .   S
    C31    O65       1.27212      .   S
    C17    O55       1.27433      .   S
    C17    O53       1.27206  1_455   S
    O67    Zn10      2.08268  1_445   S
    O55    Zn7       2.07780      .   S
    O75    C35       1.27444      .   S
    O75    Zn0       2.07956  1_565   S
    O26    C41       1.27426      .   S
    O26    Zn3       2.07770      .   S
    O53    Zn1       2.07327      .   S
    O65    Zn4       2.07804      .   S
    O48    Zn0       2.06746      .   S
    O48    C14       1.27771      .   S
    O60    Zn3       2.06838      .   S
    O60    C28       1.27781      .   S
    C35    O73       1.27200      .   S
    C41    O24       1.27208      .   S
    Zn0    O74       2.12906  1_545   S
    Zn0    O49       2.07615      .   S
    Zn3    O25       2.13174      .   S
    Zn3    O61       2.07315      .   S
    C28    O62       1.27363      .   S
    C14    O50       1.27360      .   S
    C16    O54       1.27359      .   S
    C16    O52       1.27781      .   S
    C30    O66       1.27378      .   S
    C30    O64       1.27763      .   S
    O54    Zn7       2.13172      .   S
    O66    Zn10      2.12922  1_545   S
    O52    Zn1       2.06892  1_455   S
    O64    Zn4       2.06812  1_655   S
    O74    C34       1.27314      .   S
    O25    C40       1.27363      .   S
    Zn10   O27       1.98635  1_655   S
    Zn10   O81       2.07805      .   S
    Zn7    O76       2.06893  1_455   S
    Zn7    O77       2.07328      .   S
    O73    Zn6       2.07617      .   S
    O24    Zn9       2.07316      .   S
    O61    C29       1.27197      .   S
    O49    C15       1.27199      .   S
    Zn1    O78       2.13068      .   S
    Zn1    O79       2.07781      .   S
    Zn4    O82       2.12922  1_545   S
    Zn4    O83       2.07952  1_445   S
    O62    Zn9       2.13172      .   S
    O50    Zn6       2.12908  1_545   S
    O27    C42       1.35422      .   S
    O76    C36       1.27780      .   S
    O78    C36       1.27563      .   S
    O82    C42       1.27382      .   S
    C34    O72       1.27846      .   S
    C40    O23       1.27775      .   S
    Zn9    O23       2.06830      .   S
    Zn9    O63       2.07768      .   S
    Zn6    O72       2.06746      .   S
    Zn6    O51       1.97982  1_565   S
    C29    O63       1.27434      .   S
    C15    O51       1.36487      .   S
    O81    C43       1.27213      .   S
    O77    C37       1.27206  1_455   S
    O79    C37       1.27432      .   S
    O83    C43       1.27475      .   S
    O80    C38       1.27771      .   S
    O80    Zn8       2.06744      .   S
    O68    C32       1.27759      .   S
    O68    Zn5       2.06765      .   S
    O69    C33       1.27204      .   S
    O69    Zn5       2.07751      .   S
    O20    C39       1.27194      .   S
    O20    Zn8       2.07612  1_655   S
    C38    O21       1.27345      .   S
    C32    O70       1.27369      .   S
    C33    O71       1.27446      .   S
    C39    O22       1.27446      .   S
    Zn11   Zn5       2.98539  1_554   S
    Zn0    Zn6       2.98281  1_545   S
    Zn1    Zn7       2.98310  1_655   S
    Zn2    Zn8       2.98252  1_654   S
    Zn3    Zn9       2.98203      .   S
    Zn4    Zn10      2.98691  1_445   S
