# CIF file generated by openbabel 2.4.90, see http://openbabel.sf.net
data_I
_chemical_name_common ''
_cell_length_a 18.604
_cell_length_b 19.052
_cell_length_c 19.059
_cell_angle_alpha 70.331
_cell_angle_beta 70.885
_cell_angle_gamma 108.967
_space_group_name_H-M_alt 'P 1'
_space_group_name_Hall 'P 1'
loop_
    _symmetry_equiv_pos_as_xyz
    x,y,z
loop_
    _atom_site_label
    _atom_site_type_symbol
    _atom_site_fract_x
    _atom_site_fract_y
    _atom_site_fract_z
    _atom_site_occupancy
    C0      C    0.56724   0.45649   0.09925   1.000
    C1      C    0.37857   0.34083   0.07574   1.000
    C2      C    0.66658   0.09942   0.44445   1.000
    C3      C    0.45394   0.07536   0.58458   1.000
    C4      C    0.11112   0.44415   0.45572   1.000
    C5      C    0.03835   0.58385   0.34094   1.000
    C6      C    0.83331   0.44448   0.09954   1.000
    C7      C    0.04593   0.58428   0.07547   1.000
    C8      C    0.38896   0.45570   0.44433   1.000
    C9      C    0.46163   0.34097   0.58402   1.000
    C10     C    0.93258   0.09927   0.45670   1.000
    C11     C    0.12149   0.07581   0.34063   1.000
    C12     C    0.43274   0.54351   0.90075   1.000
    C13     C    0.62141   0.65917   0.92426   1.000
    C14     C    0.33340   0.90058   0.55550   1.000
    C15     C    0.54604   0.92463   0.41543   1.000
    C16     C    0.88885   0.55585   0.54428   1.000
    C17     C    0.96163   0.41615   0.65906   1.000
    C18     C    0.16667   0.55552   0.90046   1.000
    C19     C    0.95405   0.41572   0.92453   1.000
    C20     C    0.61102   0.54429   0.55568   1.000
    C21     C    0.53834   0.65902   0.41598   1.000
    C22     C    0.06739   0.90072   0.54330   1.000
    C23     C    0.87849   0.92419   0.65937   1.000
