# CIF file generated by openbabel 2.4.90, see http://openbabel.sf.net
data_I
_chemical_name_common ''
_cell_length_a 20.451
_cell_length_b 24.817
_cell_length_c 15.846
_cell_angle_alpha 89.76
_cell_angle_beta 89.797
_cell_angle_gamma 96.677
_space_group_name_H-M_alt 'P 1'
_space_group_name_Hall 'P 1'
loop_
    _symmetry_equiv_pos_as_xyz
    x,y,z
loop_
    _atom_site_label
    _atom_site_type_symbol
    _atom_site_fract_x
    _atom_site_fract_y
    _atom_site_fract_z
    _atom_site_occupancy
    N0      N    0.31071   0.13830   0.84789   1.000
    N1      N    0.43961   0.61108   0.34697   1.000
    N2      N    0.43955   0.11150   0.34718   1.000
    N3      N    0.93951   0.61114   0.34762   1.000
    N4      N    0.93956   0.11109   0.34687   1.000
    N5      N    0.31076   0.63829   0.84797   1.000
    N6      N    0.81078   0.13827   0.84795   1.000
    N7      N    0.06042   0.38871   0.65246   1.000
    N8      N    0.06046   0.88851   0.65219   1.000
    N9      N    0.68961   0.36132   0.15056   1.000
    N10     N    0.68944   0.86177   0.15114   1.000
    N11     N    0.81048   0.63853   0.84880   1.000
    N12     N    0.18966   0.36180   0.15006   1.000
    N13     N    0.18962   0.86125   0.15052   1.000
    N14     N    0.56050   0.38855   0.65237   1.000
    N15     N    0.56038   0.88851   0.65187   1.000
    Zr16    Zr   0.32946   0.97920   0.60560   1.000
    O17     O    0.25024   0.94983   0.61563   1.000
    O18     O    0.33052   0.02653   0.67851   1.000
    O19     O    0.31690   0.02534   0.67685   1.000
    O20     O    0.35676   0.01860   0.52692   1.000
    O21     O    0.40014   0.95457   0.61133   1.000
    O22     O    0.39399   0.94788   0.62386   1.000
    Zr23    Zr   0.07940   0.72864   0.89529   1.000
    O24     O    0.08040   0.77621   0.82209   1.000
    O25     O    0.15020   0.70412   0.88918   1.000
    O26     O    0.14413   0.69748   0.87667   1.000
    O27     O    0.06679   0.77505   0.82398   1.000
    O28     O    0.10671   0.76815   0.97306   1.000
    O29     O    0.00021   0.69930   0.88522   1.000
    Zr30    Zr   0.42063   0.27104   0.10356   1.000
    O31     O    0.49983   0.30042   0.11389   1.000
    O32     O    0.34994   0.29571   0.10928   1.000
    O33     O    0.35606   0.30237   0.12171   1.000
    O34     O    0.39339   0.23145   0.02573   1.000
    O35     O    0.41963   0.22361   0.17698   1.000
    O36     O    0.43324   0.22476   0.17510   1.000
    Zr37    Zr   0.17072   0.02036   0.39273   1.000
    O38     O    0.18333   0.97425   0.32151   1.000
    O39     O    0.16973   0.97312   0.31966   1.000
    O40     O    0.14336   0.98106   0.47167   1.000
    O41     O    0.24986   0.04990   0.38309   1.000
    O42     O    0.09990   0.04483   0.38690   1.000
    O43     O    0.10614   0.05176   0.37475   1.000
    Zr44    Zr   0.32951   0.47909   0.60582   1.000
    O45     O    0.31695   0.52525   0.67706   1.000
    O46     O    0.35681   0.51842   0.52703   1.000
    O47     O    0.40021   0.45449   0.61161   1.000
    O48     O    0.39406   0.44781   0.62414   1.000
    O49     O    0.25026   0.44981   0.61585   1.000
    O50     O    0.33057   0.52646   0.67866   1.000
    Zr51    Zr   0.07942   0.22874   0.89539   1.000
    O52     O    0.10672   0.26838   0.97302   1.000
    O53     O    0.00033   0.19927   0.88503   1.000
    O54     O    0.15021   0.20419   0.88922   1.000
    O55     O    0.14412   0.19756   0.87673   1.000
    O56     O    0.08039   0.27634   0.82222   1.000
    O57     O    0.06678   0.27516   0.82411   1.000
    Zr58    Zr   0.57943   0.22863   0.89538   1.000
    O59     O    0.58043   0.27622   0.82220   1.000
    O60     O    0.64416   0.19748   0.87673   1.000
    O61     O    0.65023   0.20411   0.88923   1.000
    O62     O    0.50031   0.19922   0.88501   1.000
    O63     O    0.60671   0.26817   0.97314   1.000
    O64     O    0.56682   0.27505   0.82409   1.000
    Zr65    Zr   0.82941   0.47947   0.60701   1.000
    O66     O    0.75024   0.45002   0.61658   1.000
    O67     O    0.85671   0.51873   0.52811   1.000
    O68     O    0.90014   0.45488   0.61250   1.000
    O69     O    0.89397   0.44809   0.62490   1.000
    O70     O    0.81679   0.52557   0.67814   1.000
    O71     O    0.83039   0.52671   0.67998   1.000
    Zr72    Zr   0.92096   0.27084   0.10382   1.000
    O73     O    0.00006   0.30045   0.11392   1.000
    O74     O    0.89363   0.23132   0.02590   1.000
    O75     O    0.93347   0.22452   0.17521   1.000
    O76     O    0.85628   0.30212   0.12199   1.000
    O77     O    0.85007   0.29523   0.10991   1.000
    O78     O    0.91986   0.22337   0.17711   1.000
    Zr79    Zr   0.42095   0.77083   0.10389   1.000
    O80     O    0.39362   0.73133   0.02596   1.000
    O81     O    0.43348   0.72451   0.17527   1.000
    O82     O    0.41987   0.72336   0.17718   1.000
    O83     O    0.49999   0.80046   0.11426   1.000
    O84     O    0.35008   0.79520   0.10995   1.000
    O85     O    0.35628   0.80210   0.12203   1.000
    Zr86    Zr   0.67073   0.52035   0.39289   1.000
    O87     O    0.68332   0.47426   0.32163   1.000
    O88     O    0.60615   0.55174   0.37488   1.000
    O89     O    0.64337   0.48108   0.47186   1.000
    O90     O    0.59992   0.54482   0.38706   1.000
    O91     O    0.74986   0.54978   0.38336   1.000
    O92     O    0.66972   0.47313   0.31978   1.000
    Zr93    Zr   0.57924   0.72916   0.89573   1.000
    O94     O    0.65008   0.70472   0.88963   1.000
    O95     O    0.50020   0.69955   0.88525   1.000
    O96     O    0.58026   0.77653   0.82221   1.000
    O97     O    0.60655   0.76867   0.97354   1.000
    O98     O    0.56666   0.77539   0.82416   1.000
    O99     O    0.64388   0.69784   0.87754   1.000
    Zr100   Zr   0.92061   0.77100   0.10462   1.000
    O101    O    0.84987   0.79563   0.11051   1.000
    O102    O    0.91962   0.72345   0.17782   1.000
    O103    O    0.93322   0.72462   0.17593   1.000
    O104    O    0.85595   0.80229   0.12299   1.000
    O105    O    0.99983   0.80033   0.11457   1.000
    O106    O    0.89335   0.73153   0.02669   1.000
    Zr107   Zr   0.67047   0.02086   0.39313   1.000
    O108    O    0.74971   0.05011   0.38329   1.000
    O109    O    0.59980   0.04549   0.38758   1.000
    O110    O    0.64318   0.98137   0.47181   1.000
    O111    O    0.60595   0.05219   0.37507   1.000
    O112    O    0.66948   0.97360   0.32014   1.000
    O113    O    0.68309   0.97474   0.32196   1.000
    Zr114   Zr   0.82947   0.97911   0.60570   1.000
    O115    O    0.90017   0.95449   0.61148   1.000
    O116    O    0.83056   0.02647   0.67858   1.000
    O117    O    0.81693   0.02526   0.67697   1.000
    O118    O    0.89402   0.94781   0.62401   1.000
    O119    O    0.75022   0.94978   0.61560   1.000
    O120    O    0.85677   0.01843   0.52693   1.000
    Zr121   Zr   0.17064   0.52044   0.39309   1.000
    O122    O    0.16967   0.47332   0.31980   1.000
    O123    O    0.18327   0.47445   0.32164   1.000
    O124    O    0.24983   0.54984   0.38328   1.000
    O125    O    0.09987   0.54498   0.38755   1.000
    O126    O    0.10604   0.55180   0.37519   1.000
    O127    O    0.14330   0.48119   0.47202   1.000
loop_
    _geom_bond_atom_site_label_1
    _geom_bond_atom_site_label_2
    _geom_bond_distance
    _geom_bond_site_symmetry_2
    _ccdc_geom_bond_type
    Zr16   O17       1.70404      .   S
    N8     O17       4.03967      .   S
    Zr16   O18       1.64934  1_565   S
    N0     O18       3.92165      .   S
    Zr16   O19       1.65199  1_565   S
    N0     O19       3.91979      .   S
    Zr16   O20       1.63713  1_565   S
    N2     O20       3.91125      .   S
    Zr16   O21       1.63627      .   S
    N15    O21       3.88529      .   S
    Zr16   O22       1.63383      .   S
    N15    O22       3.88819      .   S
    Zr23   O24       1.65006      .   S
    N8     O24       3.92307      .   S
    Zr23   O25       1.63733      .   S
    N5     O25       3.88811      .   S
    Zr23   O26       1.63530      .   S
    N5     O26       3.89055      .   S
    Zr23   O27       1.65237      .   S
    N8     O27       3.92156      .   S
    Zr23   O28       1.63714      .   S
    N13    O28       3.91118  1_554   S
    Zr23   O29       1.70491      .   S
    N11    O29       4.04059  1_655   S
    Zr30   O31       1.70609      .   S
    N9     O31       4.04271      .   S
    Zr30   O32       1.63639      .   S
    N12    O32       3.88550      .   S
    Zr30   O33       1.63358      .   S
    N12    O33       3.88844      .   S
    Zr30   O34       1.63837      .   S
    N0     O34       3.91452  1_556   S
    Zr30   O35       1.65000      .   S
    N2     O35       3.92269      .   S
    Zr30   O36       1.65245      .   S
    N2     O36       3.92107      .   S
    Zr37   O38       1.65133  1_545   S
    N13    O38       3.92020      .   S
    Zr37   O39       1.64976  1_545   S
    N13    O39       3.92098      .   S
    Zr37   O40       1.63922  1_545   S
    N8     O40       3.91635      .   S
    Zr37   O41       1.70330      .   S
    N2     O41       4.03841      .   S
    Zr37   O42       1.63715      .   S
    N4     O42       3.88813  1_655   S
    Zr37   O43       1.63490      .   S
    N4     O43       3.89097  1_655   S
    Zr44   O45       1.65223      .   S
    N5     O45       3.91970      .   S
    Zr44   O46       1.63736      .   S
    N1     O46       3.91182      .   S
    Zr44   O47       1.63633      .   S
    N14    O47       3.88526      .   S
    Zr44   O48       1.63372      .   S
    N14    O48       3.88830      .   S
    Zr44   O49       1.70389      .   S
    N7     O49       4.03946      .   S
    Zr44   O50       1.64937      .   S
    N5     O50       3.92177      .   S
    Zr51   O52       1.63702      .   S
    N12    O52       3.91101  1_554   S
    Zr51   O53       1.70467      .   S
    N6     O53       4.04026  1_655   S
    Zr51   O54       1.63734      .   S
    N0     O54       3.88819      .   S
    Zr51   O55       1.63532      .   S
    N0     O55       3.89063      .   S
    Zr51   O56       1.65013      .   S
    N7     O56       3.92318      .   S
    Zr51   O57       1.65243      .   S
    N7     O57       3.92176      .   S
    Zr58   O59       1.64998      .   S
    N14    O59       3.92292      .   S
    Zr58   O60       1.63534      .   S
    N6     O60       3.89064      .   S
    Zr58   O61       1.63733      .   S
    N6     O61       3.88825      .   S
    Zr58   O62       1.70486      .   S
    N0     O62       4.04065      .   S
    Zr58   O63       1.63713      .   S
    N9     O63       3.91129  1_554   S
    Zr58   O64       1.65232      .   S
    N14    O64       3.92140      .   S
    Zr65   O66       1.70321      .   S
    N14    O66       4.03811      .   S
    Zr65   O67       1.63788      .   S
    N3     O67       3.91333      .   S
    Zr65   O68       1.63636      .   S
    N7     O68       3.88575  1_455   S
    Zr65   O69       1.63381      .   S
    N7     O69       3.88863  1_455   S
    Zr65   O70       1.65020      .   S
    N11    O70       3.91588      .   S
    Zr65   O71       1.64855      .   S
    N11    O71       3.91672      .   S
    Zr72   O73       1.70560  1_655   S
    N12    O73       4.04110      .   S
    Zr72   O74       1.63903      .   S
    N6     O74       3.91576  1_556   S
    Zr72   O75       1.65105      .   S
    N4     O75       3.91916      .   S
    Zr72   O76       1.63494      .   S
    N9     O76       3.89120      .   S
    Zr72   O77       1.63727      .   S
    N9     O77       3.88848      .   S
    Zr72   O78       1.64902      .   S
    N4     O78       3.92041      .   S
    Zr79   O80       1.63898      .   S
    N5     O80       3.91601  1_556   S
    Zr79   O81       1.65110      .   S
    N1     O81       3.91950      .   S
    Zr79   O82       1.64914      .   S
    N1     O82       3.92068      .   S
    Zr79   O83       1.70501      .   S
    N10    O83       4.03986      .   S
    Zr79   O84       1.63690      .   S
    N13    O84       3.88752      .   S
    Zr79   O85       1.63454      .   S
    N13    O85       3.89027      .   S
    Zr86   O87       1.65128      .   S
    N9     O87       3.91993      .   S
    Zr86   O88       1.63480      .   S
    N1     O88       3.89051      .   S
    Zr86   O89       1.63902      .   S
    N14    O89       3.91569      .   S
    Zr86   O90       1.63702      .   S
    N1     O90       3.88770      .   S
    Zr86   O91       1.70230      .   S
    N3     O91       4.03572      .   S
    Zr86   O92       1.64977      .   S
    N9     O92       3.92066      .   S
    Zr93   O94       1.63710      .   S
    N11    O94       3.88899      .   S
    Zr93   O95       1.70489      .   S
    N5     O95       4.04039      .   S
    Zr93   O96       1.64986      .   S
    N15    O96       3.92197      .   S
    Zr93   O97       1.63741      .   S
    N10    O97       3.91275  1_554   S
    Zr93   O98       1.65182      .   S
    N15    O98       3.92077      .   S
    Zr93   O99       1.63498      .   S
    N11    O99       3.89138      .   S
    Zr100  O101      1.63729      .   S
    N10    O101      3.88821      .   S
    Zr100  O102      1.64959      .   S
    N3     O102      3.92209      .   S
    Zr100  O103      1.65189      .   S
    N3     O103      3.92067      .   S
    Zr100  O104      1.63530      .   S
    N10    O104      3.89063      .   S
    Zr100  O105      1.70526      .   S
    N13    O105      4.04151  1_455   S
    Zr100  O106      1.63819      .   S
    N11    O106      3.91451  1_556   S
    Zr107  O108      1.70330      .   S
    N4     O108      4.03841      .   S
    Zr107  O109      1.63597      .   S
    N2     O109      3.88431      .   S
    Zr107  O110      1.63823  1_545   S
    N15    O110      3.91441      .   S
    Zr107  O111      1.63314      .   S
    N2     O111      3.88743      .   S
    Zr107  O112      1.64913  1_545   S
    N10    O112      3.91906      .   S
    Zr107  O113      1.65109  1_545   S
    N10    O113      3.91786      .   S
    Zr114  O115      1.63643      .   S
    N8     O115      3.88549  1_455   S
    Zr114  O116      1.64949  1_565   S
    N6     O116      3.92192      .   S
    Zr114  O117      1.65229  1_565   S
    N6     O117      3.91991      .   S
    Zr114  O118      1.63385      .   S
    N8     O118      3.88852  1_455   S
    Zr114  O119      1.70414      .   S
    N15    O119      4.03975      .   S
    Zr114  O120      1.63720  1_565   S
    N4     O120      3.91148      .   S
    Zr121  O122      1.65023      .   S
    N12    O122      3.92153      .   S
    Zr121  O123      1.65183      .   S
    N12    O123      3.92071      .   S
    Zr121  O124      1.70342      .   S
    N1     O124      4.03864      .   S
    Zr121  O125      1.63672      .   S
    N3     O125      3.88688  1_655   S
    Zr121  O126      1.63428      .   S
    N3     O126      3.88966  1_655   S
    Zr121  O127      1.63834      .   S
    N7     O127      3.91415      .   S
