# CIF file generated by openbabel 2.4.90, see http://openbabel.sf.net
data_I
_chemical_name_common ''
_cell_length_a 13.396
_cell_length_b 15.744
_cell_length_c 23.744
_cell_angle_alpha 89.872
_cell_angle_beta 90.124
_cell_angle_gamma 101.064
_space_group_name_H-M_alt 'P 1'
_space_group_name_Hall 'P 1'
loop_
    _symmetry_equiv_pos_as_xyz
    x,y,z
loop_
    _atom_site_label
    _atom_site_type_symbol
    _atom_site_fract_x
    _atom_site_fract_y
    _atom_site_fract_z
    _atom_site_occupancy
    H0      H    0.07847   0.08800   0.33030   1.000
    H1      H    0.57889   0.08821   0.33058   1.000
    H2      H    0.03435   0.37748   0.26452   1.000
    H3      H    0.53439   0.37747   0.26456   1.000
    H4      H    0.30374   0.30859   0.41174   1.000
    H5      H    0.80398   0.30847   0.41186   1.000
    H6      H    0.32860   0.38779   0.26540   1.000
    H7      H    0.82821   0.38774   0.26560   1.000
    H8      H    0.33140   0.54756   0.25348   1.000
    H9      H    0.83097   0.54753   0.25363   1.000
    H10     H    0.50433   0.60057   0.40617   1.000
    H11     H    0.00000   0.60057   0.40606   1.000
    H12     H    0.50552   0.44156   0.41733   1.000
    H13     H    0.00000   0.44155   0.41721   1.000
    H14     H    0.16248   0.44187   0.22735   1.000
    H15     H    0.66281   0.44198   0.22746   1.000
    H16     H    0.08487   0.39607   0.16964   1.000
    H17     H    0.58531   0.39628   0.16969   1.000
    H18     H    0.22411   0.50661   0.13455   1.000
    H19     H    0.72462   0.50677   0.13467   1.000
    H20     H    0.31690   0.46022   0.17043   1.000
    H21     H    0.81738   0.46035   0.17057   1.000
    H22     H    0.34635   0.31588   0.13851   1.000
    H23     H    0.84674   0.31597   0.13870   1.000
    H24     H    0.27531   0.26775   0.07950   1.000
    H25     H    0.77580   0.26786   0.07966   1.000
    H26     H    0.11520   0.24814   0.13374   1.000
    H27     H    0.61558   0.24825   0.13379   1.000
    H28     H    0.20640   0.19953   0.17028   1.000
    H29     H    0.70672   0.19963   0.17038   1.000
    H30     H    0.18696   0.38417   0.07685   1.000
    H31     H    0.68749   0.38431   0.07697   1.000
    H32     H    0.42402   0.41131   0.82948   1.000
    H33     H    0.92411   0.41125   0.82948   1.000
    H34     H    0.46799   0.12184   0.76456   1.000
    H35     H    0.96813   0.12187   0.76444   1.000
    H36     H    0.19842   0.19065   0.91233   1.000
    H37     H    0.69822   0.19063   0.91243   1.000
    H38     H    0.17322   0.11243   0.76546   1.000
    H39     H    0.67434   0.11264   0.76598   1.000
    H40     H    0.16913   0.95257   0.75282   1.000
    H41     H    0.67046   0.95281   0.75332   1.000
    H42     H    0.99786   0.89821   0.90560   1.000
    H43     H    0.49629   0.89802   0.90518   1.000
    H44     H    0.99792   0.05731   0.91750   1.000
    H45     H    0.49629   0.05710   0.91705   1.000
    H46     H    0.33860   0.05738   0.72784   1.000
    H47     H    0.83888   0.05745   0.72774   1.000
    H48     H    0.41633   0.10217   0.66998   1.000
    H49     H    0.91653   0.10229   0.66987   1.000
    H50     H    0.27617   0.99211   0.63531   1.000
    H51     H    0.77633   0.99218   0.63520   1.000
    H52     H    0.18401   0.03961   0.67057   1.000
    H53     H    0.68422   0.03970   0.67051   1.000
    H54     H    0.15600   0.18400   0.63756   1.000
    H55     H    0.65612   0.18402   0.63750   1.000
    H56     H    0.22741   0.23125   0.57849   1.000
    H57     H    0.72752   0.23134   0.57840   1.000
    H58     H    0.38739   0.25039   0.63309   1.000
    H59     H    0.88749   0.25054   0.63306   1.000
    H60     H    0.29674   0.29986   0.66908   1.000
    H61     H    0.79678   0.29991   0.66908   1.000
    H62     H    0.31463   0.11406   0.57694   1.000
    H63     H    0.81482   0.11418   0.57686   1.000
    H64     H    0.42389   0.91163   0.66930   1.000
    H65     H    0.92098   0.90952   0.66779   1.000
    H66     H    0.46802   0.62194   0.73468   1.000
    H67     H    0.96888   0.62166   0.73488   1.000
    H68     H    0.19956   0.69164   0.58779   1.000
    H69     H    0.69805   0.69126   0.58720   1.000
    H70     H    0.17448   0.61179   0.73383   1.000
    H71     H    0.67347   0.61199   0.73369   1.000
    H72     H    0.17018   0.45171   0.74612   1.000
    H73     H    0.66960   0.45209   0.74607   1.000
    H74     H    0.99706   0.39920   0.59347   1.000
    H75     H    0.49667   0.39898   0.59341   1.000
    H76     H    0.99743   0.55850   0.58200   1.000
    H77     H    0.49654   0.55815   0.58183   1.000
    H78     H    0.33949   0.55741   0.77148   1.000
    H79     H    0.83973   0.55633   0.77159   1.000
    H80     H    0.41697   0.60239   0.82944   1.000
    H81     H    0.91689   0.60253   0.82937   1.000
    H82     H    0.27720   0.49186   0.86400   1.000
    H83     H    0.77780   0.49171   0.86443   1.000
    H84     H    0.18481   0.53898   0.82830   1.000
    H85     H    0.68493   0.53791   0.82845   1.000
    H86     H    0.15597   0.68315   0.86077   1.000
    H87     H    0.65503   0.68219   0.86030   1.000
    H88     H    0.22688   0.73053   0.92001   1.000
    H89     H    0.72623   0.73063   0.91918   1.000
    H90     H    0.38721   0.75020   0.86592   1.000
    H91     H    0.88606   0.75061   0.86477   1.000
    C92     C    0.58365   0.91926   0.82873   1.000
    C93     C    0.13418   0.06533   0.79576   1.000
    C94     C    0.63480   0.06546   0.79608   1.000
    C95     C    0.13276   0.97704   0.78862   1.000
    H96     H    0.29644   0.79950   0.82953   1.000
    H97     H    0.79443   0.79857   0.82811   1.000
    H98     H    0.31482   0.61376   0.92218   1.000
    H99     H    0.81480   0.61437   0.92195   1.000
    H100    H    0.08022   0.58727   0.17039   1.000
    H101    H    0.57660   0.58710   0.17065   1.000
    H102    H    0.03240   0.87552   0.23569   1.000
    H103    H    0.53016   0.87610   0.23533   1.000
    H104    H    0.30130   0.80650   0.08711   1.000
    H105    H    0.80421   0.80647   0.08728   1.000
    H106    H    0.32515   0.88455   0.23407   1.000
    H107    H    0.82603   0.88399   0.23387   1.000
    H108    H    0.32968   0.04455   0.24678   1.000
    H109    H    0.82928   0.04376   0.24643   1.000
    H110    H    0.50260   0.09893   0.09450   1.000
    H111    H    0.00000   0.09904   0.09511   1.000
    H112    H    0.50191   0.93963   0.08250   1.000
    H113    H    0.00000   0.93999   0.08331   1.000
    H114    H    0.16133   0.94094   0.27222   1.000
    H115    H    0.66002   0.94131   0.27180   1.000
    H116    H    0.08430   0.89576   0.33024   1.000
    H117    H    0.58298   0.89677   0.33000   1.000
    H118    H    0.22374   0.00000   0.36466   1.000
    H119    H    0.72339   0.00000   0.36414   1.000
    H120    H    0.31634   0.96000   0.32923   1.000
    H121    H    0.81525   0.95964   0.32861   1.000
    H122    H    0.34610   0.81617   0.36212   1.000
    H123    H    0.84395   0.81548   0.36156   1.000
    C124    C    0.35230   0.68667   0.09095   1.000
    C125    C    0.85535   0.68672   0.09094   1.000
    C126    C    0.42371   0.63983   0.11686   1.000
    H127    H    0.27563   0.76851   0.42130   1.000
    H128    H    0.77353   0.76841   0.42100   1.000
    H129    H    0.11506   0.74816   0.36714   1.000
    H130    H    0.61266   0.74907   0.36712   1.000
    H131    H    0.20608   0.69929   0.33100   1.000
    H132    H    0.70271   0.69922   0.33089   1.000
    H133    H    0.18683   0.88477   0.42307   1.000
    H134    H    0.68586   0.88534   0.42272   1.000
    C135    C    0.35398   0.18842   0.40846   1.000
    C136    C    0.85379   0.18814   0.40822   1.000
    C137    C    0.42563   0.14145   0.38320   1.000
    C138    C    0.92490   0.14097   0.38258   1.000
    C139    C    0.49293   0.18938   0.34032   1.000
    C140    C    0.99260   0.18921   0.34003   1.000
    C141    C    0.06847   0.15108   0.31498   1.000
    C142    C    0.56874   0.15122   0.31520   1.000
    C143    C    0.13008   0.19353   0.27367   1.000
    C144    C    0.63017   0.19357   0.27378   1.000
    C145    C    0.11839   0.27526   0.25132   1.000
    C146    C    0.61851   0.27531   0.25140   1.000
    C147    C    0.04623   0.31464   0.27861   1.000
    C148    C    0.54631   0.31465   0.27868   1.000
    C149    C    0.48608   0.27379   0.32290   1.000
    C150    C    0.98595   0.27373   0.32278   1.000
    C151    C    0.35523   0.27230   0.39157   1.000
    C152    C    0.85528   0.27217   0.39153   1.000
    C153    C    0.41699   0.40616   0.34219   1.000
    C154    C    0.91694   0.40612   0.34219   1.000
    C155    C    0.41743   0.58035   0.32937   1.000
    C156    C    0.91741   0.58034   0.32938   1.000
    C157    C    0.36778   0.43458   0.29588   1.000
    C158    C    0.86753   0.43455   0.29595   1.000
    C159    C    0.36845   0.52288   0.28911   1.000
    C160    C    0.86819   0.52285   0.28919   1.000
    C161    C    0.46694   0.55329   0.37571   1.000
    C162    C    0.96710   0.55327   0.37565   1.000
    C163    C    0.46695   0.46511   0.38177   1.000
    C164    C    0.96709   0.46509   0.38100   1.000
    C165    C    0.16057   0.40114   0.18967   1.000
    C166    C    0.66095   0.40127   0.18978   1.000
    C167    C    0.24262   0.44534   0.14921   1.000
    C168    C    0.74310   0.44548   0.14933   1.000
    C169    C    0.27184   0.30681   0.11741   1.000
    C170    C    0.77227   0.30693   0.11756   1.000
    C171    C    0.18858   0.26127   0.15667   1.000
    C172    C    0.68892   0.26137   0.15676   1.000
    C173    C    0.14800   0.31078   0.90850   1.000
    C174    C    0.64786   0.31079   0.90860   1.000
    C175    C    0.07643   0.35768   0.88286   1.000
    C176    C    0.57633   0.35773   0.88294   1.000
    C177    C    0.00962   0.30986   0.83982   1.000
    C178    C    0.50950   0.30990   0.83989   1.000
    C179    C    0.43407   0.34825   0.81430   1.000
    C180    C    0.93415   0.34822   0.81433   1.000
    C181    C    0.37284   0.30602   0.77280   1.000
    C182    C    0.87291   0.30601   0.77281   1.000
    C183    C    0.38415   0.22415   0.75080   1.000
    C184    C    0.88427   0.22417   0.75078   1.000
    C185    C    0.45620   0.18470   0.77846   1.000
    C186    C    0.95634   0.18471   0.77837   1.000
    C187    C    0.01656   0.22552   0.82263   1.000
    C188    C    0.51640   0.22553   0.82273   1.000
    C189    C    0.14699   0.22694   0.89187   1.000
    C190    C    0.64682   0.22693   0.89196   1.000
    C191    C    0.08567   0.09330   0.84229   1.000
    C192    C    0.58548   0.09330   0.84235   1.000
    C193    C    0.08372   0.91923   0.82871   1.000
    C194    C    0.63347   0.97719   0.78890   1.000
    C195    C    0.03517   0.94584   0.87536   1.000
    C196    C    0.53422   0.94573   0.87508   1.000
    C197    C    0.03590   0.03403   0.88178   1.000
    C198    C    0.53491   0.03391   0.88153   1.000
    C199    C    0.34076   0.09781   0.68989   1.000
    C200    C    0.84097   0.09789   0.68979   1.000
    C201    C    0.25834   0.05376   0.64949   1.000
    C202    C    0.75854   0.05384   0.64941   1.000
    C203    C    0.23051   0.19242   0.61667   1.000
    C204    C    0.73064   0.19250   0.61662   1.000
    C205    C    0.31403   0.23784   0.65589   1.000
    C206    C    0.81413   0.23792   0.65586   1.000
    C207    C    0.14826   0.81135   0.59108   1.000
    C208    C    0.64774   0.81138   0.59086   1.000
    C209    C    0.07604   0.85784   0.61610   1.000
    C210    C    0.57618   0.85824   0.61623   1.000
    C211    C    0.00874   0.80947   0.65880   1.000
    C212    C    0.50934   0.81025   0.65920   1.000
    C213    C    0.43395   0.84851   0.68455   1.000
    C214    C    0.93195   0.84688   0.68342   1.000
    C215    C    0.37280   0.80613   0.72600   1.000
    C216    C    0.87045   0.80404   0.72460   1.000
    C217    C    0.38419   0.72420   0.74817   1.000
    C218    C    0.88316   0.72288   0.74740   1.000
    C219    C    0.45616   0.68484   0.72070   1.000
    C220    C    0.95625   0.68415   0.72053   1.000
    C221    C    0.01640   0.72534   0.67630   1.000
    C222    C    0.51624   0.72581   0.67640   1.000
    C223    C    0.14768   0.72757   0.60794   1.000
    C224    C    0.64663   0.72744   0.60757   1.000
    C225    C    0.08609   0.59352   0.65710   1.000
    C226    C    0.58506   0.59352   0.65690   1.000
    C227    C    0.08385   0.41930   0.67031   1.000
    C228    C    0.58342   0.41934   0.67025   1.000
    C229    C    0.13503   0.56500   0.70351   1.000
    C230    C    0.63406   0.56516   0.70338   1.000
    C231    C    0.13347   0.47662   0.71045   1.000
    C232    C    0.63280   0.47683   0.71037   1.000
    C233    C    0.03483   0.44648   0.62383   1.000
    C234    C    0.53429   0.44634   0.62376   1.000
    C235    C    0.03572   0.53475   0.61760   1.000
    C236    C    0.53488   0.53457   0.61747   1.000
    C237    C    0.34139   0.59777   0.80933   1.000
    C238    C    0.84126   0.59714   0.80920   1.000
    C239    C    0.25906   0.55339   0.84959   1.000
    C240    C    0.75922   0.55290   0.84967   1.000
    C241    C    0.23040   0.69181   0.88194   1.000
    C242    C    0.72964   0.69145   0.88131   1.000
    C243    C    0.31392   0.73753   0.84291   1.000
    C244    C    0.81264   0.73704   0.84190   1.000
    C245    C    0.92679   0.63978   0.11679   1.000
    C246    C    0.49005   0.68781   0.16010   1.000
    C247    C    0.99325   0.68773   0.16004   1.000
    C248    C    0.06930   0.65005   0.18557   1.000
    C249    C    0.56588   0.65001   0.18569   1.000
    C250    C    0.13015   0.69272   0.22714   1.000
    C251    C    0.62680   0.69278   0.22715   1.000
    C252    C    0.11769   0.77419   0.24920   1.000
    C253    C    0.61489   0.77445   0.24914   1.000
    C254    C    0.04508   0.81296   0.22173   1.000
    C255    C    0.54243   0.81334   0.22152   1.000
    C256    C    0.48258   0.77205   0.17726   1.000
    C257    C    0.98549   0.77185   0.17735   1.000
    C258    C    0.35269   0.77035   0.10772   1.000
    C259    C    0.85564   0.77031   0.10785   1.000
    C260    C    0.41326   0.90383   0.15744   1.000
    C261    C    0.91571   0.90366   0.15778   1.000
    C262    C    0.41589   0.07769   0.17116   1.000
    C263    C    0.91677   0.07744   0.17130   1.000
    C264    C    0.36445   0.93168   0.20387   1.000
    C265    C    0.86577   0.93125   0.20388   1.000
    C266    C    0.36619   0.01996   0.21108   1.000
    C267    C    0.86673   0.01945   0.21098   1.000
    C268    C    0.46476   0.05121   0.12462   1.000
    C269    C    0.96679   0.05121   0.12510   1.000
    C270    C    0.46367   0.96301   0.11811   1.000
    C271    C    0.96647   0.96310   0.11869   1.000
    C272    C    0.15982   0.90066   0.31020   1.000
    C273    C    0.65834   0.90111   0.30986   1.000
    C274    C    0.24215   0.94534   0.35044   1.000
    C275    C    0.74117   0.94545   0.34995   1.000
    C276    C    0.27174   0.80717   0.38321   1.000
    C277    C    0.76976   0.80703   0.38280   1.000
    C278    C    0.18827   0.76113   0.34419   1.000
    C279    C    0.68570   0.76137   0.34400   1.000
    N280    N    0.25430   0.39249   0.09941   1.000
    N281    N    0.75480   0.39262   0.09954   1.000
    N282    N    0.17776   0.31512   0.20676   1.000
    N283    N    0.67798   0.31519   0.20687   1.000
    N284    N    0.41639   0.31510   0.35068   1.000
    N285    N    0.91636   0.31504   0.35065   1.000
    N286    N    0.24727   0.10635   0.59930   1.000
    N287    N    0.74747   0.10646   0.59923   1.000
    N288    N    0.32449   0.18424   0.70636   1.000
    N289    N    0.82463   0.18428   0.70630   1.000
    N290    N    0.08616   0.18424   0.85079   1.000
    N291    N    0.58598   0.18424   0.85089   1.000
    N292    N    0.24754   0.60586   0.89959   1.000
    N293    N    0.74746   0.60590   0.89939   1.000
    N294    N    0.32470   0.68410   0.79261   1.000
    N295    N    0.82370   0.68297   0.79193   1.000
    N296    N    0.08673   0.68456   0.64879   1.000
    N297    N    0.58572   0.68455   0.64849   1.000
    N298    N    0.25409   0.89296   0.40060   1.000
    N299    N    0.75299   0.89310   0.40015   1.000
    N300    N    0.17702   0.81449   0.29375   1.000
    N301    N    0.67464   0.81466   0.29348   1.000
    N302    N    0.41285   0.81298   0.14900   1.000
    N303    N    0.91566   0.81285   0.14923   1.000
    O304    O    0.43471   0.06496   0.39440   1.000
    O305    O    0.93325   0.06409   0.39314   1.000
    O306    O    0.06693   0.43407   0.89380   1.000
    O307    O    0.56689   0.43413   0.89391   1.000
    O308    O    0.06645   0.93422   0.60500   1.000
    O309    O    0.56675   0.93466   0.60507   1.000
    O310    O    0.43346   0.56347   0.10596   1.000
    O311    O    0.93642   0.56341   0.10582   1.000
    F312    F    0.20772   0.15574   0.25433   1.000
    F313    F    0.70770   0.15572   0.25435   1.000
    F314    F    0.41671   0.66624   0.32343   1.000
    F315    F    0.91672   0.66623   0.32342   1.000
    F316    F    0.29588   0.34435   0.75302   1.000
    F317    F    0.79591   0.34434   0.75302   1.000
    F318    F    0.08334   0.83337   0.82220   1.000
    F319    F    0.58335   0.83340   0.82221   1.000
    F320    F    0.29588   0.84437   0.74573   1.000
    F321    F    0.79166   0.84074   0.74330   1.000
    F322    F    0.08336   0.33334   0.67657   1.000
    F323    F    0.58334   0.33343   0.67656   1.000
    F324    F    0.20813   0.65558   0.24692   1.000
    F325    F    0.70443   0.65543   0.24699   1.000
    F326    F    0.41663   0.16349   0.17781   1.000
    F327    F    0.91666   0.16317   0.17700   1.000
loop_
    _geom_bond_atom_site_label_1
    _geom_bond_atom_site_label_2
    _geom_bond_distance
    _geom_bond_site_symmetry_2
    _ccdc_geom_bond_type
    H30    N280      1.03470      .   S
    H31    N281      1.03455      .   S
    H24    C169      1.09741      .   S
    H25    C170      1.09733      .   S
    H112   C270      1.09013      .   S
    H113   C271      1.05144  1_455   S
    H104   C258      1.08862      .   S
    H105   C259      1.08861      .   S
    C125   C259      1.37610      .   S
    C125   C245      1.45114      .   S
    C124   C258      1.37611      .   S
    C124   C126      1.45048      .   S
    H110   C268      1.08901      .   S
    H111   C269      1.06889  1_455   S
    N280   C169      1.47514      .   S
    N280   C167      1.47315      .   S
    N281   C170      1.47519      .   S
    N281   C168      1.47314      .   S
    O311   C245      1.26140      .   S
    O310   C126      1.26138      .   S
    C258   N302      1.36116      .   S
    C259   N303      1.36131      .   S
    C245   C247      1.46922      .   S
    C126   C246      1.46848      .   S
    C169   H22       1.10050      .   S
    C169   C171      1.52368      .   S
    C170   H23       1.10051      .   S
    C170   C172      1.52365      .   S
    C270   C268      1.39480  1_565   S
    C270   C260      1.39770      .   S
    C271   C269      1.39499  1_565   S
    C271   C261      1.39803      .   S
    C268   C262      1.39054      .   S
    C269   C263      1.39077      .   S
    H26    C171      1.10713      .   S
    H27    C172      1.10700      .   S
    H18    C167      1.09688      .   S
    H19    C168      1.09701      .   S
    N302   C260      1.44367      .   S
    N302   C256      1.40153      .   S
    C167   H20       1.09900      .   S
    C167   C165      1.52423      .   S
    N303   C261      1.44440      .   S
    N303   C257      1.40153      .   S
    C168   H21       1.09921      .   S
    C168   C166      1.52497      .   S
    C171   H28       1.09249      .   S
    C171   N282      1.48556      .   S
    C172   H29       1.09254      .   S
    C172   N283      1.48591      .   S
    C260   C264      1.39661      .   S
    C261   C265      1.39685      .   S
    C247   C257      1.41042      .   S
    C247   C248      1.40894  1_655   S
    C246   C256      1.41012      .   S
    C246   C249      1.40814      .   S
    H16    C165      1.10817      .   S
    H17    C166      1.10817      .   S
    H100   C248      1.08884      .   S
    H101   C249      1.08882      .   S
    C262   F326      1.35846      .   S
    C262   C266      1.39085      .   S
    C263   F327      1.35713      .   S
    C263   C267      1.39096      .   S
    C256   C255      1.40326      .   S
    C257   C254      1.40275  1_655   S
    C248   C250      1.37083      .   S
    C249   C251      1.37008      .   S
    C165   N282      1.47254      .   S
    C165   H14       1.09934      .   S
    C166   N283      1.47280      .   S
    C166   H15       1.09920      .   S
    C264   C266      1.39646  1_565   S
    C264   H106      1.09151      .   S
    C265   C267      1.39679  1_565   S
    C265   H107      1.09147      .   S
    N282   C145      1.39822      .   S
    N283   C146      1.39843      .   S
    C267   H109      1.08790      .   S
    C266   H108      1.08794      .   S
    C255   H103      1.08389      .   S
    C255   C253      1.40382      .   S
    C254   H102      1.08380      .   S
    C254   C252      1.40273      .   S
    C250   F324      1.37285      .   S
    C250   C252      1.42574      .   S
    C251   F325      1.37124      .   S
    C251   C253      1.42612      .   S
    C253   N301      1.39807      .   S
    C252   N300      1.39967      .   S
    C145   C143      1.42687      .   S
    C145   C147      1.40467      .   S
    C146   C144      1.42700      .   S
    C146   C148      1.40469      .   S
    H8     C159      1.08801      .   S
    H9     C160      1.08796      .   S
    F312   C143      1.37387      .   S
    F313   C144      1.37390      .   S
    H2     C147      1.08391      .   S
    H3     C148      1.08394      .   S
    H6     C157      1.09291      .   S
    H7     C158      1.09156      .   S
    H115   C273      1.09991      .   S
    H114   C272      1.09927      .   S
    C143   C141      1.37066      .   S
    C144   C142      1.37078      .   S
    C147   C150      1.40281  1_455   S
    C148   C149      1.40316      .   S
    C159   C157      1.39741      .   S
    C159   C155      1.39144      .   S
    C160   C158      1.39750      .   S
    C160   C156      1.39156      .   S
    N301   C273      1.47260      .   S
    N301   C279      1.48566      .   S
    N300   C272      1.47274      .   S
    N300   C278      1.48533      .   S
    C157   C153      1.39704      .   S
    C158   C154      1.39722      .   S
    C273   H117      1.10803      .   S
    C273   C275      1.52509      .   S
    C272   H116      1.10810      .   S
    C272   C274      1.52472      .   S
    C141   H0        1.08888      .   S
    C141   C140      1.40908  1_455   S
    C142   H1        1.08895      .   S
    C142   C139      1.40936      .   S
    C150   C140      1.41044      .   S
    C150   N285      1.40257      .   S
    C149   C139      1.41062      .   S
    C149   N284      1.40255      .   S
    F315   C156      1.36117      .   S
    F314   C155      1.36115      .   S
    H121   C275      1.09901      .   S
    H120   C274      1.09910      .   S
    C155   C161      1.39107      .   S
    C156   C162      1.39117      .   S
    H132   C279      1.09250      .   S
    H131   C278      1.09252      .   S
    C140   C138      1.46843      .   S
    C139   C137      1.46912      .   S
    C153   N284      1.44592      .   S
    C153   C163      1.39828      .   S
    C154   N285      1.44611      .   S
    C154   C164      1.38717      .   S
    C279   H130      1.10696      .   S
    C279   C277      1.52359      .   S
    C278   H129      1.10702      .   S
    C278   C276      1.52362      .   S
    C275   H119      0.99392  1_565   S
    C275   N299      1.47315      .   S
    C274   H118      0.99924  1_565   S
    C274   N298      1.47301      .   S
    N285   C152      1.36227      .   S
    N284   C151      1.36254      .   S
    H123   C277      1.10044      .   S
    H122   C276      1.10041      .   S
    C162   C164      1.39388      .   S
    C162   H11       1.07007  1_655   S
    C161   C163      1.39543      .   S
    C161   H10       1.08898      .   S
    C164   H13       1.06323  1_655   S
    C163   H12       1.08976      .   S
    C138   O305      1.26138      .   S
    C138   C136      1.45103      .   S
    C277   N299      1.47514      .   S
    C277   H128      1.09731      .   S
    C137   O304      1.26103      .   S
    C137   C135      1.45072      .   S
    C276   N298      1.47518      .   S
    C276   H127      1.09566      .   S
    C152   C136      1.37666      .   S
    C152   H5        1.08873      .   S
    C151   C135      1.37646      .   S
    C151   H4        1.08872      .   S
    N299   H134      1.03465      .   S
    N298   H133      1.03460      .   S
    H63    N287      1.03466      .   S
    H62    N286      1.03471      .   S
    H57    C204      1.09833      .   S
    H56    C203      1.09739      .   S
    H77    C236      1.08983      .   S
    H76    C235      1.08982  1_655   S
    H69    C224      1.08904      .   S
    H68    C223      1.08874      .   S
    C208   C224      1.37641      .   S
    C208   C210      1.44982      .   S
    C207   C223      1.37626      .   S
    C207   C209      1.44935      .   S
    H75    C234      1.08900      .   S
    H74    C233      1.08899  1_655   S
    N287   C204      1.47523      .   S
    N287   C202      1.47309      .   S
    N286   C203      1.47524      .   S
    N286   C201      1.47305      .   S
    O308   C209      1.26084      .   S
    O309   C210      1.26111      .   S
    C224   N297      1.36188      .   S
    C223   N296      1.36169      .   S
    C209   C211      1.46888      .   S
    C210   C212      1.46770      .   S
    C204   H55       1.10039      .   S
    C204   C206      1.52372      .   S
    C203   H54       1.10045      .   S
    C203   C205      1.52370      .   S
    C236   C234      1.39527      .   S
    C236   C226      1.39695      .   S
    C235   C233      1.39503      .   S
    C235   C225      1.39740      .   S
    C234   C228      1.39088      .   S
    C233   C227      1.39099      .   S
    H59    C206      1.10699      .   S
    H58    C205      1.10692      .   S
    H51    C202      1.09703  1_565   S
    H50    C201      1.09696  1_565   S
    N297   C226      1.44503      .   S
    N297   C222      1.40146      .   S
    N296   C225      1.44480      .   S
    N296   C221      1.40114      .   S
    C202   H53       1.09919      .   S
    C202   C200      1.52452      .   S
    C201   H52       1.09918      .   S
    C201   C199      1.52473      .   S
    C206   H61       1.09259      .   S
    C206   N289      1.48580      .   S
    C205   H60       1.09263      .   S
    C205   N288      1.48585      .   S
    C226   C230      1.39834      .   S
    C225   C229      1.39762      .   S
    C211   C221      1.40967      .   S
    C211   C214      1.40835  1_455   S
    C212   C222      1.40970      .   S
    C212   C213      1.40820      .   S
    H65    C214      1.08888      .   S
    H64    C213      1.08913      .   S
    H49    C200      1.10816      .   S
    H48    C199      1.10817      .   S
    C228   F323      1.36036      .   S
    C228   C232      1.39123      .   S
    C227   F322      1.36000      .   S
    C227   C231      1.39121      .   S
    C221   C220      1.40463  1_455   S
    C222   C219      1.40411      .   S
    C214   C216      1.37009      .   S
    C213   C215      1.36948      .   S
    C200   N289      1.47269      .   S
    C200   H47       1.09946      .   S
    C199   N288      1.47269      .   S
    C199   H46       1.09926      .   S
    C230   C232      1.39706      .   S
    C230   H71       1.09165      .   S
    C229   C231      1.39702      .   S
    C229   H70       1.09153      .   S
    N289   C184      1.39819      .   S
    N288   C183      1.39771      .   S
    C232   H73       1.08797      .   S
    C231   H72       1.08796      .   S
    C220   H67       1.08390      .   S
    C220   C218      1.40393      .   S
    C219   H66       1.08387      .   S
    C219   C217      1.40457      .   S
    C216   F321      1.37202      .   S
    C216   C218      1.42646      .   S
    C215   F320      1.37303      .   S
    C215   C217      1.42702      .   S
    C218   N295      1.39845      .   S
    C217   N294      1.39816      .   S
    C184   C182      1.42676      .   S
    C184   C186      1.40464      .   S
    C183   C181      1.42668      .   S
    C183   C185      1.40508      .   S
    H40    C95       1.08797      .   S
    F317   C182      1.37267      .   S
    F316   C181      1.37225      .   S
    H41    C194      1.08755      .   S
    H35    C186      1.08391      .   S
    H34    C185      1.08397      .   S
    H38    C93       1.09152      .   S
    H39    C94       1.09148      .   S
    H78    C237      1.09919      .   S
    H79    C238      1.09920      .   S
    C181   C179      1.36962      .   S
    C182   C180      1.36995      .   S
    C186   C187      1.40302  1_655   S
    C185   C188      1.40318      .   S
    C95    C93       1.39710  1_565   S
    C95    C193      1.39118      .   S
    C194   C94       1.39722  1_565   S
    C194   C92       1.39170      .   S
    N295   C238      1.47263      .   S
    N295   C244      1.48592      .   S
    N294   C237      1.47272      .   S
    N294   C243      1.48552      .   S
    C93    C191      1.39715      .   S
    C94    C192      1.39721      .   S
    C238   H81       1.10826      .   S
    C238   C240      1.52452      .   S
    C237   H80       1.10821      .   S
    C237   C239      1.52453      .   S
    C179   H32       1.08934      .   S
    C179   C178      1.40883      .   S
    C180   H33       1.08879      .   S
    C180   C177      1.40821  1_655   S
    F318   C193      1.36006      .   S
    F319   C92       1.36017      .   S
    C187   C177      1.41009      .   S
    C187   N290      1.40246      .   S
    C188   C178      1.41012      .   S
    C188   N291      1.40234      .   S
    H97    C244      1.09274      .   S
    H84    C239      1.09922      .   S
    H85    C240      1.09912      .   S
    C193   C195      1.39106      .   S
    C92    C196      1.39088      .   S
    H96    C243      1.09254      .   S
    C177   C175      1.46734      .   S
    C178   C176      1.46775      .   S
    C244   H91       1.10700      .   S
    C244   C242      1.52390      .   S
    C191   N290      1.44507      .   S
    C191   C197      1.39803      .   S
    C192   N291      1.44516      .   S
    C192   C198      1.39797      .   S
    C243   H90       1.10691      .   S
    C243   C241      1.52353      .   S
    C239   H82       1.09684      .   S
    C239   N292      1.47303      .   S
    C240   H83       1.09685      .   S
    C240   N293      1.47318      .   S
    N290   C189      1.36255      .   S
    N291   C190      1.36250      .   S
    H87    C242      1.10064      .   S
    H86    C241      1.10052      .   S
    C196   C198      1.39533  1_565   S
    C196   H43       1.08899      .   S
    C195   C197      1.39533  1_565   S
    C195   H42       1.08764  1_455   S
    C242   N293      1.47516      .   S
    C242   H89       1.09749      .   S
    C198   H45       1.08989      .   S
    C197   H44       1.08966  1_455   S
    C241   N292      1.47514      .   S
    C241   H88       1.09748      .   S
    C175   O306      1.26117      .   S
    C175   C173      1.44984      .   S
    C176   O307      1.26115      .   S
    C176   C174      1.45015      .   S
    C189   C173      1.37624      .   S
    C189   H36       1.08876      .   S
    C190   C174      1.37638      .   S
    C190   H37       1.08875      .   S
    N293   H99       1.03461      .   S
    N292   H98       1.03466      .   S
