# CIF file generated by openbabel 2.4.90, see http://openbabel.sf.net
data_I
_chemical_name_common ''
_cell_length_a 13.396
_cell_length_b 15.744
_cell_length_c 23.744
_cell_angle_alpha 89.872
_cell_angle_beta 90.124
_cell_angle_gamma 101.064
_space_group_name_H-M_alt 'P 1'
_space_group_name_Hall 'P 1'
loop_
    _symmetry_equiv_pos_as_xyz
    x,y,z
loop_
    _atom_site_label
    _atom_site_type_symbol
    _atom_site_fract_x
    _atom_site_fract_y
    _atom_site_fract_z
    _atom_site_occupancy
    Cd0     Cd   0.86740   0.97069   0.46884   1.000
    Cd1     Cd   0.13353   0.52811   0.96840   1.000
    Cd2     Cd   0.63427   0.52841   0.96863   1.000
    Cd3     Cd   0.13338   0.02890   0.53020   1.000
    Cd4     Cd   0.63357   0.02903   0.53027   1.000
    Cd5     Cd   0.36795   0.47003   0.03030   1.000
    Cd6     Cd   0.86852   0.46983   0.03030   1.000
    Cd7     Cd   0.36785   0.97105   0.46937   1.000
    C8      C    0.27560   0.65316   0.04540   1.000
    C9      C    0.77856   0.65358   0.04541   1.000
    C10     C    0.27628   0.15463   0.45338   1.000
    C11     C    0.77627   0.15447   0.45325   1.000
    C12     C    0.22528   0.34488   0.95358   1.000
    C13     C    0.72516   0.34486   0.95367   1.000
    C14     C    0.22576   0.84552   0.54627   1.000
    C15     C    0.72524   0.84542   0.54602   1.000
    Cl16    Cl   0.02777   0.90329   0.46122   1.000
    Cl17    Cl   0.52778   0.90313   0.46154   1.000
    Cl18    Cl   0.47418   0.59639   0.96166   1.000
    Cl19    Cl   0.97369   0.59593   0.96108   1.000
    Cl20    Cl   0.47358   0.09687   0.53820   1.000
    Cl21    Cl   0.97337   0.09667   0.53758   1.000
    Cl22    Cl   0.02830   0.40176   0.03747   1.000
    Cl23    Cl   0.52873   0.40307   0.03803   1.000
    O24     O    0.25111   0.07084   0.45896   1.000
    O25     O    0.75097   0.07069   0.45880   1.000
    O26     O    0.23832   0.20722   0.48134   1.000
    O27     O    0.73856   0.20713   0.48129   1.000
    O28     O    0.25094   0.42872   0.95820   1.000
    O29     O    0.75090   0.42869   0.95834   1.000
    O30     O    0.26234   0.29257   0.98254   1.000
    O31     O    0.76227   0.29252   0.98250   1.000
    O32     O    0.25026   0.92933   0.54070   1.000
    O33     O    0.75030   0.92923   0.54065   1.000
    O34     O    0.26399   0.79315   0.51820   1.000
    O35     O    0.76313   0.79293   0.51793   1.000
    O36     O    0.25088   0.56943   0.03981   1.000
    O37     O    0.75301   0.56989   0.03970   1.000
    O38     O    0.23793   0.70587   0.01722   1.000
    O39     O    0.74166   0.70667   0.01707   1.000
loop_
    _geom_bond_atom_site_label_1
    _geom_bond_atom_site_label_2
    _geom_bond_distance
    _geom_bond_site_symmetry_2
    _ccdc_geom_bond_type
    O39    C9        1.24509      .   S
    O38    C8        1.24409      .   S
    Cd5    Cl23      2.57921      .   S
    Cd5    O28       2.32654  1_554   S
    Cd6    Cl22      2.57618  1_655   S
    Cd6    O29       2.32873  1_554   S
    O37    C9        1.30363      .   S
    O37    Cd2       2.32353  1_554   S
    O36    C8        1.30317      .   S
    O36    Cd1       2.31731  1_554   S
    C11    O25       1.30375      .   S
    C11    O27       1.24524      .   S
    C10    O24       1.30392      .   S
    C10    O26       1.24522      .   S
    O25    Cd4       2.32250      .   S
    O24    Cd3       2.32194      .   S
    Cl16   Cd0       2.57906  1_455   S
    Cl17   Cd7       2.57866      .   S
    Cd0    O33       2.32542      .   S
    Cd7    O32       2.32184      .   S
    O35    C15       1.24514      .   S
    O34    C14       1.24590      .   S
    Cd3    Cl21      2.57767  1_455   S
    Cd4    Cl20      2.57888      .   S
    O33    C15       1.30363      .   S
    O32    C14       1.30372      .   S
    C12    O28       1.30340      .   S
    C12    O30       1.24524      .   S
    C13    O29       1.30347      .   S
    C13    O31       1.24416      .   S
    Cl19   Cd1       2.57486  1_655   S
    Cl18   Cd2       2.57886      .   S
    O24    Cd7       2.43205  1_545   S
    O25    Cd0       2.43052  1_545   S
    O28    Cd1       2.43488      .   S
    O29    Cd2       2.43107      .   S
    O32    Cd3       2.43091  1_565   S
    O33    Cd4       2.43211  1_565   S
    O36    Cd5       2.43003      .   S
    O37    Cd6       2.42161      .   S
