# CIF file generated by openbabel 2.4.90, see http://openbabel.sf.net
data_I
_chemical_name_common ''
_cell_length_a 13.396
_cell_length_b 15.744
_cell_length_c 23.744
_cell_angle_alpha 89.872
_cell_angle_beta 90.124
_cell_angle_gamma 101.064
_space_group_name_H-M_alt 'P 1'
_space_group_name_Hall 'P 1'
loop_
    _symmetry_equiv_pos_as_xyz
    x,y,z
loop_
    _atom_site_label
    _atom_site_type_symbol
    _atom_site_fract_x
    _atom_site_fract_y
    _atom_site_fract_z
    _atom_site_occupancy
    N0      N    0.94670   0.65108   0.73390   1.000
    N1      N    0.44691   0.15153   0.76487   1.000
    N2      N    0.05450   0.84631   0.23509   1.000
    N3      N    0.94705   0.15155   0.76481   1.000
    N4      N    0.55262   0.84647   0.23491   1.000
    N5      N    0.44689   0.65156   0.73418   1.000
    N6      N    0.05474   0.34770   0.26507   1.000
    N7      N    0.55524   0.34782   0.26520   1.000
    Zr8     Zr   0.25069   0.49918   0.99946   1.000
    O9      O    0.28470   0.55422   0.91677   1.000
    O10     O    0.21681   0.44433   0.08221   1.000
    Zr11    Zr   0.75068   0.99998   0.49965   1.000
    O12     O    0.71604   0.94458   0.41718   1.000
    O13     O    0.78473   0.05481   0.58221   1.000
    Zr14    Zr   0.75168   0.49926   0.99947   1.000
    O15     O    0.78523   0.55419   0.91672   1.000
    O16     O    0.71757   0.44439   0.08227   1.000
    Zr17    Zr   0.25081   0.00004   0.49975   1.000
    O18     O    0.28471   0.05481   0.58228   1.000
    O19     O    0.21677   0.94460   0.41740   1.000
    O20     O    0.64789   0.88916   0.57538   1.000
    O21     O    0.85344   0.11050   0.42381   1.000
    O22     O    0.14796   0.38859   0.92370   1.000
    O23     O    0.35283   0.60954   0.07549   1.000
    O24     O    0.14795   0.88904   0.57539   1.000
    O25     O    0.35377   0.11067   0.42403   1.000
    O26     O    0.64845   0.38865   0.92376   1.000
    O27     O    0.85439   0.60955   0.07554   1.000
loop_
    _geom_bond_atom_site_label_1
    _geom_bond_atom_site_label_2
    _geom_bond_distance
    _geom_bond_site_symmetry_2
    _ccdc_geom_bond_type
    Zr8    O9        2.15818      .   S
    N5     O9        4.95964      .   S
    Zr8    O10       2.15831  1_556   S
    N6     O10       4.96215      .   S
    Zr11   O12       2.15844      .   S
    N4     O12       4.95964      .   S
    Zr11   O13       2.15626  1_565   S
    N3     O13       4.95610      .   S
    Zr14   O15       2.15830      .   S
    N0     O15       4.95900      .   S
    Zr14   O16       2.15974  1_556   S
    N7     O16       4.96484      .   S
    Zr17   O18       2.15474      .   S
    N1     O18       4.95515      .   S
    Zr17   O19       2.15520  1_545   S
    N2     O19       4.95533      .   S
    Zr11   O20       2.69228      .   S
    N5     O20       5.61921      .   S
    Zr11   O21       2.69131  1_565   S
    N6     O21       5.61604  1_455   S
    Zr8    O22       2.69152      .   S
    N3     O22       5.61855  1_655   S
    Zr8    O23       2.69106  1_556   S
    N4     O23       5.62079      .   S
    Zr17   O24       2.69267  1_545   S
    N0     O24       5.61913  1_655   S
    Zr17   O25       2.69133      .   S
    N7     O25       5.61780      .   S
    Zr14   O26       2.69376      .   S
    N1     O26       5.62223      .   S
    Zr14   O27       2.69383  1_556   S
    N2     O27       5.62283  1_455   S
