# CIF file generated by openbabel 2.4.90, see http://openbabel.sf.net
data_I
_chemical_name_common ''
_cell_length_a 13.396
_cell_length_b 15.744
_cell_length_c 23.744
_cell_angle_alpha 89.872
_cell_angle_beta 90.124
_cell_angle_gamma 101.064
_space_group_name_H-M_alt 'P 1'
_space_group_name_Hall 'P 1'
loop_
    _symmetry_equiv_pos_as_xyz
    x,y,z
loop_
    _atom_site_label
    _atom_site_type_symbol
    _atom_site_fract_x
    _atom_site_fract_y
    _atom_site_fract_z
    _atom_site_occupancy
    N0      N    0.94670   0.65108   0.73390   1.000
    N1      N    0.44691   0.15153   0.76487   1.000
    N2      N    0.05450   0.84631   0.23509   1.000
    N3      N    0.94705   0.15155   0.76481   1.000
    N4      N    0.55262   0.84647   0.23491   1.000
    N5      N    0.44689   0.65156   0.73418   1.000
    N6      N    0.05474   0.34770   0.26507   1.000
    N7      N    0.55524   0.34782   0.26520   1.000
    Zr8     Zr   0.25069   0.49918   0.99946   1.000
    O9      O    0.13716   0.40775   0.92371   1.000
    O10     O    0.28470   0.55422   0.91677   1.000
    O11     O    0.36367   0.59039   0.07549   1.000
    O12     O    0.21681   0.44433   0.08221   1.000
    O13     O    0.15877   0.36943   0.92369   1.000
    O14     O    0.34199   0.62869   0.07550   1.000
    Zr15    Zr   0.75068   0.99998   0.49965   1.000
    O16     O    0.84278   0.12974   0.42377   1.000
    O17     O    0.65868   0.86998   0.57548   1.000
    O18     O    0.71604   0.94458   0.41718   1.000
    O19     O    0.86410   0.09126   0.42384   1.000
    O20     O    0.78473   0.05481   0.58221   1.000
    O21     O    0.63710   0.90834   0.57529   1.000
    Zr22    Zr   0.75168   0.49926   0.99947   1.000
    O23     O    0.63771   0.40783   0.92377   1.000
    O24     O    0.78523   0.55419   0.91672   1.000
    O25     O    0.65920   0.36947   0.92374   1.000
    O26     O    0.86508   0.59036   0.07553   1.000
    O27     O    0.71757   0.44439   0.08227   1.000
    O28     O    0.84371   0.62875   0.07555   1.000
    Zr29    Zr   0.25081   0.00004   0.49975   1.000
    O30     O    0.28471   0.05481   0.58228   1.000
    O31     O    0.13706   0.90818   0.57525   1.000
    O32     O    0.34300   0.12986   0.42391   1.000
    O33     O    0.15883   0.86990   0.57552   1.000
    O34     O    0.21677   0.94460   0.41740   1.000
    O35     O    0.36454   0.09148   0.42415   1.000
loop_
    _geom_bond_atom_site_label_1
    _geom_bond_atom_site_label_2
    _geom_bond_distance
    _geom_bond_site_symmetry_2
    _ccdc_geom_bond_type
    Zr8    O9        2.60371      .   S
    N3     O9        5.75096  1_655   S
    Zr8    O10       2.15818      .   S
    N5     O10       4.95964      .   S
    Zr8    O11       2.60345  1_556   S
    N4     O11       5.75327      .   S
    Zr8    O12       2.15831  1_556   S
    N6     O12       4.96215      .   S
    Zr8    O13       2.82251      .   S
    N3     O13       5.50636  1_655   S
    Zr8    O14       2.82191  1_556   S
    N4     O14       5.50853      .   S
    Zr15   O16       2.82265  1_565   S
    N6     O16       5.50337  1_455   S
    Zr15   O17       2.82396      .   S
    N5     O17       5.50621      .   S
    Zr15   O18       2.15844      .   S
    N4     O18       4.95964      .   S
    Zr15   O19       2.60316  1_565   S
    N6     O19       5.74894  1_455   S
    Zr15   O20       2.15626  1_565   S
    N3     O20       4.95610      .   S
    Zr15   O21       2.60379      .   S
    N5     O21       5.75242      .   S
    Zr22   O23       2.60580      .   S
    N1     O23       5.75496      .   S
    Zr22   O24       2.15830      .   S
    N0     O24       4.95900      .   S
    Zr22   O25       2.82482      .   S
    N1     O25       5.50968      .   S
    Zr22   O26       2.60560  1_556   S
    N2     O26       5.75617  1_455   S
    Zr22   O27       2.15974  1_556   S
    N7     O27       4.96484      .   S
    Zr22   O28       2.82509  1_556   S
    N2     O28       5.50960  1_455   S
    Zr29   O30       2.15474      .   S
    N1     O30       4.95515      .   S
    Zr29   O31       2.60417  1_545   S
    N0     O31       5.75236  1_655   S
    Zr29   O32       2.82308      .   S
    N7     O32       5.50483      .   S
    Zr29   O33       2.82439  1_545   S
    N0     O33       5.50613  1_655   S
    Zr29   O34       2.15520  1_545   S
    N2     O34       4.95533      .   S
    Zr29   O35       2.60276      .   S
    N7     O35       5.75098      .   S
