# CIF file generated by openbabel 2.4.90, see http://openbabel.sf.net
data_I
_chemical_name_common ''
_cell_length_a 13.396
_cell_length_b 15.744
_cell_length_c 23.744
_cell_angle_alpha 89.872
_cell_angle_beta 90.124
_cell_angle_gamma 101.064
_space_group_name_H-M_alt 'P 1'
_space_group_name_Hall 'P 1'
loop_
    _symmetry_equiv_pos_as_xyz
    x,y,z
loop_
    _atom_site_label
    _atom_site_type_symbol
    _atom_site_fract_x
    _atom_site_fract_y
    _atom_site_fract_z
    _atom_site_occupancy
    Zr0     Zr   0.36785   0.97105   0.46937   1.000
    Zr1     Zr   0.86740   0.97069   0.46884   1.000
    Zr2     Zr   0.13353   0.52811   0.96840   1.000
    Zr3     Zr   0.63427   0.52841   0.96863   1.000
    Zr4     Zr   0.13338   0.02890   0.53020   1.000
    Zr5     Zr   0.63357   0.02903   0.53027   1.000
    Zr6     Zr   0.36795   0.47003   0.03030   1.000
    Zr7     Zr   0.86852   0.46983   0.03030   1.000
    Zr8     Zr   0.27628   0.15463   0.45338   1.000
    Zr9     Zr   0.77627   0.15447   0.45325   1.000
    Zr10    Zr   0.22528   0.34488   0.95358   1.000
    Zr11    Zr   0.72516   0.34486   0.95367   1.000
    Zr12    Zr   0.22576   0.84552   0.54627   1.000
    Zr13    Zr   0.72524   0.84542   0.54602   1.000
    Zr14    Zr   0.27560   0.65316   0.04540   1.000
    Zr15    Zr   0.77856   0.65358   0.04541   1.000
    Zr16    Zr   0.02777   0.90329   0.46122   1.000
    Zr17    Zr   0.52778   0.90313   0.46154   1.000
    Zr18    Zr   0.47418   0.59639   0.96166   1.000
    Zr19    Zr   0.97369   0.59593   0.96108   1.000
    Zr20    Zr   0.47358   0.09687   0.53820   1.000
    Zr21    Zr   0.97337   0.09667   0.53758   1.000
    Zr22    Zr   0.02830   0.40176   0.03747   1.000
    Zr23    Zr   0.52873   0.40307   0.03803   1.000
    Zr24    Zr   0.25111   0.07084   0.45896   1.000
    Zr25    Zr   0.75097   0.07069   0.45880   1.000
    Zr26    Zr   0.23832   0.20722   0.48134   1.000
    Zr27    Zr   0.73856   0.20713   0.48129   1.000
    Zr28    Zr   0.25094   0.42872   0.95820   1.000
    Zr29    Zr   0.75090   0.42869   0.95834   1.000
    Zr30    Zr   0.26234   0.29257   0.98254   1.000
    Zr31    Zr   0.76227   0.29252   0.98250   1.000
    Zr32    Zr   0.25026   0.92933   0.54070   1.000
    Zr33    Zr   0.75030   0.92923   0.54065   1.000
    Zr34    Zr   0.26399   0.79315   0.51820   1.000
    Zr35    Zr   0.76313   0.79293   0.51793   1.000
    Zr36    Zr   0.25088   0.56943   0.03981   1.000
    Zr37    Zr   0.75301   0.56989   0.03970   1.000
    Zr38    Zr   0.23793   0.70587   0.01722   1.000
    Zr39    Zr   0.74166   0.70667   0.01707   1.000
    O40     O    0.76011   0.68013   0.03124   1.000
    O41     O    0.25677   0.67952   0.03131   1.000
    O42     O    0.44834   0.43655   0.03416   1.000
    O43     O    0.30944   0.44937   0.99425   1.000
    O44     O    0.94841   0.43579   0.03388   1.000
    O45     O    0.80971   0.44926   0.99432   1.000
    O46     O    0.76579   0.61174   0.04255   1.000
    O47     O    0.69364   0.54915   0.00416   1.000
    O48     O    0.26324   0.61130   0.04260   1.000
    O49     O    0.19220   0.54877   0.00410   1.000
    O50     O    0.76362   0.11258   0.45602   1.000
    O51     O    0.75741   0.18080   0.46727   1.000
    O52     O    0.26370   0.11273   0.45617   1.000
    O53     O    0.25730   0.18093   0.46736   1.000
    O54     O    0.69227   0.04986   0.49453   1.000
    O55     O    0.19225   0.04987   0.49458   1.000
    O56     O    0.94758   0.93699   0.46503   1.000
    O57     O    0.44782   0.93709   0.46545   1.000
    O58     O    0.80885   0.94996   0.50474   1.000
    O59     O    0.30906   0.95019   0.50503   1.000
    O60     O    0.74419   0.81917   0.53197   1.000
    O61     O    0.24487   0.81933   0.53224   1.000
    O62     O    0.05338   0.06278   0.53389   1.000
    O63     O    0.55357   0.06295   0.53423   1.000
    O64     O    0.73777   0.88732   0.54333   1.000
    O65     O    0.23801   0.88742   0.54348   1.000
    O66     O    0.23811   0.38680   0.95589   1.000
    O67     O    0.24381   0.31873   0.96806   1.000
    O68     O    0.73803   0.38678   0.95600   1.000
    O69     O    0.74371   0.31869   0.96808   1.000
    O70     O    0.05361   0.56202   0.96474   1.000
    O71     O    0.55423   0.56240   0.96514   1.000
    O72     O    0.30948   0.02094   0.46416   1.000
    O73     O    0.80918   0.02069   0.46382   1.000
    O74     O    0.19223   0.47842   0.96330   1.000
    O75     O    0.69259   0.47855   0.96348   1.000
    O76     O    0.19182   0.97912   0.53545   1.000
    O77     O    0.69193   0.97913   0.53546   1.000
    O78     O    0.30941   0.51973   0.03506   1.000
    O79     O    0.81077   0.51986   0.03500   1.000
    N80     N    0.94670   0.65108   0.73390   1.000
    O81     O    0.02331   0.81632   0.65075   1.000
    O82     O    0.06685   0.73976   0.65129   1.000
    O83     O    0.81878   0.60912   0.83396   1.000
    N84     N    0.44691   0.15153   0.76487   1.000
    O85     O    0.56671   0.23967   0.84800   1.000
    O86     O    0.52374   0.31640   0.84807   1.000
    O87     O    0.31862   0.10958   0.66481   1.000
    N88     N    0.05450   0.84631   0.23509   1.000
    O89     O    0.93573   0.75823   0.15163   1.000
    O90     O    0.97848   0.68147   0.15158   1.000
    O91     O    0.18274   0.88916   0.33504   1.000
    N92     N    0.94705   0.15155   0.76481   1.000
    O93     O    0.06684   0.23969   0.84793   1.000
    O94     O    0.02364   0.31632   0.84796   1.000
    O95     O    0.81878   0.10965   0.66478   1.000
    N96     N    0.55262   0.84647   0.23491   1.000
    O97     O    0.43328   0.75820   0.15154   1.000
    O98     O    0.68141   0.88918   0.33470   1.000
    O99     O    0.47666   0.68161   0.15152   1.000
    N100    N    0.44689   0.65156   0.73418   1.000
    O101    O    0.31871   0.60927   0.83409   1.000
    O102    O    0.56669   0.73998   0.65131   1.000
    O103    O    0.52352   0.81670   0.65093   1.000
    N104    N    0.05474   0.34770   0.26507   1.000
    O105    O    0.93488   0.25950   0.34790   1.000
    O106    O    0.97753   0.18255   0.34803   1.000
    O107    O    0.18293   0.38948   0.16496   1.000
    N108    N    0.55524   0.34782   0.26520   1.000
    O109    O    0.43519   0.25967   0.34806   1.000
    O110    O    0.47826   0.18291   0.34854   1.000
    O111    O    0.68345   0.38952   0.16506   1.000
loop_
    _geom_bond_atom_site_label_1
    _geom_bond_atom_site_label_2
    _geom_bond_distance
    _geom_bond_site_symmetry_2
    _ccdc_geom_bond_type
    Zr39   O40       0.62255      .   S
    Zr15   O40       0.62255      .   S
    Zr38   O41       0.62204      .   S
    Zr14   O41       0.62204      .   S
    Zr6    O42       1.28960      .   S
    Zr23   O42       1.28960      .   S
    Zr6    O43       1.16327  1_554   S
    Zr28   O43       1.16327      .   S
    Zr7    O44       1.28809      .   S
    Zr22   O44       1.28809  1_455   S
    Zr7    O45       1.16436  1_554   S
    Zr29   O45       1.16436      .   S
    Zr37   O46       0.65182      .   S
    Zr15   O46       0.65182      .   S
    Zr37   O47       1.16176      .   S
    Zr3    O47       1.16176  1_556   S
    Zr36   O48       0.65159      .   S
    Zr14   O48       0.65159      .   S
    Zr36   O49       1.15866      .   S
    Zr2    O49       1.15866  1_556   S
    Zr9    O50       0.65187      .   S
    Zr25   O50       0.65187      .   S
    Zr9    O51       0.62262      .   S
    Zr27   O51       0.62262      .   S
    Zr8    O52       0.65196      .   S
    Zr24   O52       0.65196      .   S
    Zr8    O53       0.62261      .   S
    Zr26   O53       0.62261      .   S
    Zr25   O54       1.16125      .   S
    Zr5    O54       1.16125      .   S
    Zr24   O55       1.16097      .   S
    Zr4    O55       1.16097      .   S
    Zr16   O56       1.28953  1_455   S
    Zr1    O56       1.28953      .   S
    Zr17   O57       1.28933      .   S
    Zr0    O57       1.28933      .   S
    Zr1    O58       1.16271      .   S
    Zr33   O58       1.16271      .   S
    Zr0    O59       1.16092      .   S
    Zr32   O59       1.16092      .   S
    Zr35   O60       0.62257      .   S
    Zr13   O60       0.62257      .   S
    Zr34   O61       0.62295      .   S
    Zr12   O61       0.62295      .   S
    Zr4    O62       1.28884      .   S
    Zr21   O62       1.28884  1_655   S
    Zr5    O63       1.28944      .   S
    Zr20   O63       1.28944      .   S
    Zr33   O64       0.65181      .   S
    Zr13   O64       0.65181      .   S
    Zr32   O65       0.65186      .   S
    Zr12   O65       0.65186      .   S
    Zr10   O66       0.65170      .   S
    Zr28   O66       0.65170      .   S
    Zr10   O67       0.62262      .   S
    Zr30   O67       0.62262      .   S
    Zr11   O68       0.65173      .   S
    Zr29   O68       0.65173      .   S
    Zr11   O69       0.62208      .   S
    Zr31   O69       0.62208      .   S
    Zr19   O70       1.28743  1_655   S
    Zr2    O70       1.28743      .   S
    Zr18   O71       1.28943      .   S
    Zr3    O71       1.28943      .   S
    Zr24   O72       1.21603      .   S
    Zr0    O72       1.21603  1_565   S
    Zr25   O73       1.21526      .   S
    Zr1    O73       1.21526  1_565   S
    Zr28   O74       1.21744      .   S
    Zr2    O74       1.21744      .   S
    Zr29   O75       1.21553      .   S
    Zr3    O75       1.21553      .   S
    Zr32   O76       1.21546      .   S
    Zr4    O76       1.21546  1_545   S
    Zr33   O77       1.21605      .   S
    Zr5    O77       1.21605  1_545   S
    Zr36   O78       1.21502      .   S
    Zr6    O78       1.21502      .   S
    Zr37   O79       1.21080      .   S
    Zr7    O79       1.21080      .   S
    N80    O81       3.26808  1_655   S
    Zr4    O81       4.43289  1_545   S
    N80    O82       2.74350  1_655   S
    Zr12   O82       3.48796      .   S
    N80    O83       2.93130      .   S
    Zr3    O83       4.09384      .   S
    N84    O85       2.74620      .   S
    Zr11   O85       3.49130      .   S
    N84    O86       3.26934      .   S
    Zr3    O86       4.43349      .   S
    N84    O87       2.93050      .   S
    Zr4    O87       4.09392      .   S
    N88    O89       2.74467  1_455   S
    Zr15   O89       3.48897      .   S
    N88    O90       3.27184  1_455   S
    Zr7    O90       4.43904      .   S
    N88    O91       2.92960      .   S
    Zr0    O91       4.09172      .   S
    N92    O93       2.74580  1_655   S
    Zr10   O93       3.49102      .   S
    N92    O94       3.26684  1_655   S
    Zr2    O94       4.42773      .   S
    N92    O95       2.92969      .   S
    Zr5    O95       4.09182      .   S
    N96    O97       2.74800      .   S
    Zr14   O97       3.49330      .   S
    N96    O98       2.93037      .   S
    Zr1    O98       4.09331      .   S
    N96    O99       3.27011      .   S
    Zr6    O99       4.43452      .   S
    N100   O101      2.93097      .   S
    Zr2    O101      4.09344      .   S
    N100   O102      2.74393      .   S
    Zr13   O102      3.48829      .   S
    N100   O103      3.26851      .   S
    Zr5    O103      4.43169  1_545   S
    N104   O105      2.74228  1_455   S
    Zr9    O105      3.48747      .   S
    N104   O106      3.26570  1_455   S
    Zr1    O106      4.42909  1_565   S
    N104   O107      2.93404      .   S
    Zr6    O107      4.09687      .   S
    N108   O109      2.74369      .   S
    Zr8    O109      3.48898      .   S
    N108   O110      3.26775      .   S
    Zr0    O110      4.43017  1_565   S
    N108   O111      2.93471      .   S
    Zr7    O111      4.09838      .   S
