# CIF file generated by openbabel 2.4.90, see http://openbabel.sf.net
data_I
_chemical_name_common ''
_cell_length_a 13.396
_cell_length_b 15.744
_cell_length_c 23.744
_cell_angle_alpha 89.872
_cell_angle_beta 90.124
_cell_angle_gamma 101.064
_space_group_name_H-M_alt 'P 1'
_space_group_name_Hall 'P 1'
loop_
    _symmetry_equiv_pos_as_xyz
    x,y,z
loop_
    _atom_site_label
    _atom_site_type_symbol
    _atom_site_fract_x
    _atom_site_fract_y
    _atom_site_fract_z
    _atom_site_occupancy
    C0      C    0.36785   0.97105   0.46937   1.000
    C1      C    0.86740   0.97069   0.46884   1.000
    C2      C    0.13353   0.52811   0.96840   1.000
    C3      C    0.63427   0.52841   0.96863   1.000
    C4      C    0.13338   0.02890   0.53020   1.000
    C5      C    0.63357   0.02903   0.53027   1.000
    C6      C    0.36795   0.47003   0.03030   1.000
    C7      C    0.86852   0.46983   0.03030   1.000
    C8      C    0.07847   0.08800   0.33030   1.000
    C9      C    0.57889   0.08821   0.33058   1.000
    C10     C    0.03435   0.37748   0.26452   1.000
    C11     C    0.53439   0.37747   0.26456   1.000
    C12     C    0.30374   0.30859   0.41174   1.000
    C13     C    0.80398   0.30847   0.41186   1.000
    C14     C    0.32860   0.38779   0.26540   1.000
    C15     C    0.82821   0.38774   0.26560   1.000
    C16     C    0.33140   0.54756   0.25348   1.000
    C17     C    0.83097   0.54753   0.25363   1.000
    C18     C    0.50433   0.60057   0.40617   1.000
    C19     C    0.00000   0.60057   0.40606   1.000
    C20     C    0.50552   0.44156   0.41733   1.000
    C21     C    0.00000   0.44155   0.41721   1.000
    C22     C    0.16248   0.44187   0.22735   1.000
    C23     C    0.66281   0.44198   0.22746   1.000
    C24     C    0.08487   0.39607   0.16964   1.000
    C25     C    0.58531   0.39628   0.16969   1.000
    C26     C    0.22411   0.50661   0.13455   1.000
    C27     C    0.72462   0.50677   0.13467   1.000
    C28     C    0.31690   0.46022   0.17043   1.000
    C29     C    0.81738   0.46035   0.17057   1.000
    C30     C    0.34635   0.31588   0.13851   1.000
    C31     C    0.84674   0.31597   0.13870   1.000
    C32     C    0.27531   0.26775   0.07950   1.000
    C33     C    0.77580   0.26786   0.07966   1.000
    C34     C    0.11520   0.24814   0.13374   1.000
    C35     C    0.61558   0.24825   0.13379   1.000
    C36     C    0.20640   0.19953   0.17028   1.000
    C37     C    0.70672   0.19963   0.17038   1.000
    C38     C    0.18696   0.38417   0.07685   1.000
    C39     C    0.68749   0.38431   0.07697   1.000
    C40     C    0.42402   0.41131   0.82948   1.000
    C41     C    0.92411   0.41125   0.82948   1.000
    C42     C    0.46799   0.12184   0.76456   1.000
    C43     C    0.96813   0.12187   0.76444   1.000
    C44     C    0.19842   0.19065   0.91233   1.000
    C45     C    0.69822   0.19063   0.91243   1.000
    C46     C    0.17322   0.11243   0.76546   1.000
    C47     C    0.67434   0.11264   0.76598   1.000
    C48     C    0.16913   0.95257   0.75282   1.000
    C49     C    0.67046   0.95281   0.75332   1.000
    C50     C    0.99786   0.89821   0.90560   1.000
    C51     C    0.49629   0.89802   0.90518   1.000
    C52     C    0.99792   0.05731   0.91750   1.000
    C53     C    0.49629   0.05710   0.91705   1.000
    C54     C    0.33860   0.05738   0.72784   1.000
    C55     C    0.83888   0.05745   0.72774   1.000
    C56     C    0.41633   0.10217   0.66998   1.000
    C57     C    0.91653   0.10229   0.66987   1.000
    C58     C    0.27617   0.99211   0.63531   1.000
    C59     C    0.77633   0.99218   0.63520   1.000
    C60     C    0.18401   0.03961   0.67057   1.000
    C61     C    0.68422   0.03970   0.67051   1.000
    C62     C    0.15600   0.18400   0.63756   1.000
    C63     C    0.65612   0.18402   0.63750   1.000
    C64     C    0.22741   0.23125   0.57849   1.000
    C65     C    0.72752   0.23134   0.57840   1.000
    C66     C    0.38739   0.25039   0.63309   1.000
    C67     C    0.88749   0.25054   0.63306   1.000
    C68     C    0.29674   0.29986   0.66908   1.000
    C69     C    0.79678   0.29991   0.66908   1.000
    C70     C    0.31463   0.11406   0.57694   1.000
    C71     C    0.81482   0.11418   0.57686   1.000
    C72     C    0.42389   0.91163   0.66930   1.000
    C73     C    0.92098   0.90952   0.66779   1.000
    C74     C    0.46802   0.62194   0.73468   1.000
    C75     C    0.96888   0.62166   0.73488   1.000
    C76     C    0.19956   0.69164   0.58779   1.000
    C77     C    0.69805   0.69126   0.58720   1.000
    C78     C    0.17448   0.61179   0.73383   1.000
    C79     C    0.67347   0.61199   0.73369   1.000
    C80     C    0.17018   0.45171   0.74612   1.000
    C81     C    0.66960   0.45209   0.74607   1.000
    C82     C    0.99706   0.39920   0.59347   1.000
    C83     C    0.49667   0.39898   0.59341   1.000
    C84     C    0.99743   0.55850   0.58200   1.000
    C85     C    0.49654   0.55815   0.58183   1.000
    C86     C    0.33949   0.55741   0.77148   1.000
    C87     C    0.83973   0.55633   0.77159   1.000
    C88     C    0.41697   0.60239   0.82944   1.000
    C89     C    0.91689   0.60253   0.82937   1.000
    C90     C    0.27720   0.49186   0.86400   1.000
    C91     C    0.77780   0.49171   0.86443   1.000
    C92     C    0.18481   0.53898   0.82830   1.000
    C93     C    0.68493   0.53791   0.82845   1.000
    C94     C    0.15597   0.68315   0.86077   1.000
    C95     C    0.65503   0.68219   0.86030   1.000
    C96     C    0.22688   0.73053   0.92001   1.000
    C97     C    0.72623   0.73063   0.91918   1.000
    C98     C    0.38721   0.75020   0.86592   1.000
    C99     C    0.88606   0.75061   0.86477   1.000
    C100    C    0.29644   0.79950   0.82953   1.000
    C101    C    0.79443   0.79857   0.82811   1.000
    C102    C    0.31482   0.61376   0.92218   1.000
    C103    C    0.81480   0.61437   0.92195   1.000
    C104    C    0.08022   0.58727   0.17039   1.000
    C105    C    0.57660   0.58710   0.17065   1.000
    C106    C    0.03240   0.87552   0.23569   1.000
    C107    C    0.53016   0.87610   0.23533   1.000
    C108    C    0.30130   0.80650   0.08711   1.000
    C109    C    0.80421   0.80647   0.08728   1.000
    C110    C    0.32515   0.88455   0.23407   1.000
    C111    C    0.82603   0.88399   0.23387   1.000
    C112    C    0.32968   0.04455   0.24678   1.000
    C113    C    0.82928   0.04376   0.24643   1.000
    C114    C    0.50260   0.09893   0.09450   1.000
    C115    C    0.00000   0.09904   0.09511   1.000
    C116    C    0.50191   0.93963   0.08250   1.000
    C117    C    0.00000   0.93999   0.08331   1.000
    C118    C    0.16133   0.94094   0.27222   1.000
    C119    C    0.66002   0.94131   0.27180   1.000
    C120    C    0.08430   0.89576   0.33024   1.000
    C121    C    0.58298   0.89677   0.33000   1.000
    C122    C    0.22374   0.00000   0.36466   1.000
    C123    C    0.72339   0.00000   0.36414   1.000
    C124    C    0.31634   0.96000   0.32923   1.000
    C125    C    0.81525   0.95964   0.32861   1.000
    C126    C    0.34610   0.81617   0.36212   1.000
    C127    C    0.84395   0.81548   0.36156   1.000
    C128    C    0.27563   0.76851   0.42130   1.000
    C129    C    0.77353   0.76841   0.42100   1.000
    C130    C    0.11506   0.74816   0.36714   1.000
    C131    C    0.61266   0.74907   0.36712   1.000
    C132    C    0.20608   0.69929   0.33100   1.000
    C133    C    0.70271   0.69922   0.33089   1.000
    C134    C    0.18683   0.88477   0.42307   1.000
    C135    C    0.68586   0.88534   0.42272   1.000
    C136    C    0.27628   0.15463   0.45338   1.000
    C137    C    0.77627   0.15447   0.45325   1.000
    C138    C    0.35398   0.18842   0.40846   1.000
    C139    C    0.85379   0.18814   0.40822   1.000
    C140    C    0.42563   0.14145   0.38320   1.000
    C141    C    0.92490   0.14097   0.38258   1.000
    C142    C    0.49293   0.18938   0.34032   1.000
    C143    C    0.99260   0.18921   0.34003   1.000
    C144    C    0.06847   0.15108   0.31498   1.000
    C145    C    0.56874   0.15122   0.31520   1.000
    C146    C    0.13008   0.19353   0.27367   1.000
    C147    C    0.63017   0.19357   0.27378   1.000
    C148    C    0.11839   0.27526   0.25132   1.000
    C149    C    0.61851   0.27531   0.25140   1.000
    C150    C    0.04623   0.31464   0.27861   1.000
    C151    C    0.54631   0.31465   0.27868   1.000
    C152    C    0.48608   0.27379   0.32290   1.000
    C153    C    0.98595   0.27373   0.32278   1.000
    C154    C    0.35523   0.27230   0.39157   1.000
    C155    C    0.85528   0.27217   0.39153   1.000
    C156    C    0.41699   0.40616   0.34219   1.000
    C157    C    0.91694   0.40612   0.34219   1.000
    C158    C    0.41743   0.58035   0.32937   1.000
    C159    C    0.91741   0.58034   0.32938   1.000
    C160    C    0.36778   0.43458   0.29588   1.000
    C161    C    0.86753   0.43455   0.29595   1.000
    C162    C    0.36845   0.52288   0.28911   1.000
    C163    C    0.86819   0.52285   0.28919   1.000
    C164    C    0.46694   0.55329   0.37571   1.000
    C165    C    0.96710   0.55327   0.37565   1.000
    C166    C    0.46695   0.46511   0.38177   1.000
    C167    C    0.96709   0.46509   0.38100   1.000
    C168    C    0.16057   0.40114   0.18967   1.000
    C169    C    0.66095   0.40127   0.18978   1.000
    C170    C    0.24262   0.44534   0.14921   1.000
    C171    C    0.74310   0.44548   0.14933   1.000
    C172    C    0.27184   0.30681   0.11741   1.000
    C173    C    0.77227   0.30693   0.11756   1.000
    C174    C    0.18858   0.26127   0.15667   1.000
    C175    C    0.68892   0.26137   0.15676   1.000
    C176    C    0.22528   0.34488   0.95358   1.000
    C177    C    0.72516   0.34486   0.95367   1.000
    C178    C    0.14800   0.31078   0.90850   1.000
    C179    C    0.64786   0.31079   0.90860   1.000
    C180    C    0.07643   0.35768   0.88286   1.000
    C181    C    0.57633   0.35773   0.88294   1.000
    C182    C    0.00962   0.30986   0.83982   1.000
    C183    C    0.50950   0.30990   0.83989   1.000
    C184    C    0.43407   0.34825   0.81430   1.000
    C185    C    0.93415   0.34822   0.81433   1.000
    C186    C    0.37284   0.30602   0.77280   1.000
    C187    C    0.87291   0.30601   0.77281   1.000
    C188    C    0.38415   0.22415   0.75080   1.000
    C189    C    0.88427   0.22417   0.75078   1.000
    C190    C    0.45620   0.18470   0.77846   1.000
    C191    C    0.95634   0.18471   0.77837   1.000
    C192    C    0.01656   0.22552   0.82263   1.000
    C193    C    0.51640   0.22553   0.82273   1.000
    C194    C    0.14699   0.22694   0.89187   1.000
    C195    C    0.64682   0.22693   0.89196   1.000
    C196    C    0.08567   0.09330   0.84229   1.000
    C197    C    0.58548   0.09330   0.84235   1.000
    C198    C    0.08372   0.91923   0.82871   1.000
    C199    C    0.58365   0.91926   0.82873   1.000
    C200    C    0.13418   0.06533   0.79576   1.000
    C201    C    0.63480   0.06546   0.79608   1.000
    C202    C    0.13276   0.97704   0.78862   1.000
    C203    C    0.63347   0.97719   0.78890   1.000
    C204    C    0.03517   0.94584   0.87536   1.000
    C205    C    0.53422   0.94573   0.87508   1.000
    C206    C    0.03590   0.03403   0.88178   1.000
    C207    C    0.53491   0.03391   0.88153   1.000
    C208    C    0.34076   0.09781   0.68989   1.000
    C209    C    0.84097   0.09789   0.68979   1.000
    C210    C    0.25834   0.05376   0.64949   1.000
    C211    C    0.75854   0.05384   0.64941   1.000
    C212    C    0.23051   0.19242   0.61667   1.000
    C213    C    0.73064   0.19250   0.61662   1.000
    C214    C    0.31403   0.23784   0.65589   1.000
    C215    C    0.81413   0.23792   0.65586   1.000
    C216    C    0.22576   0.84552   0.54627   1.000
    C217    C    0.72524   0.84542   0.54602   1.000
    C218    C    0.14826   0.81135   0.59108   1.000
    C219    C    0.64774   0.81138   0.59086   1.000
    C220    C    0.07604   0.85784   0.61610   1.000
    C221    C    0.57618   0.85824   0.61623   1.000
    C222    C    0.00874   0.80947   0.65880   1.000
    C223    C    0.50934   0.81025   0.65920   1.000
    C224    C    0.43395   0.84851   0.68455   1.000
    C225    C    0.93195   0.84688   0.68342   1.000
    C226    C    0.37280   0.80613   0.72600   1.000
    C227    C    0.87045   0.80404   0.72460   1.000
    C228    C    0.38419   0.72420   0.74817   1.000
    C229    C    0.88316   0.72288   0.74740   1.000
    C230    C    0.45616   0.68484   0.72070   1.000
    C231    C    0.95625   0.68415   0.72053   1.000
    C232    C    0.01640   0.72534   0.67630   1.000
    C233    C    0.51624   0.72581   0.67640   1.000
    C234    C    0.14768   0.72757   0.60794   1.000
    C235    C    0.64663   0.72744   0.60757   1.000
    C236    C    0.08609   0.59352   0.65710   1.000
    C237    C    0.58506   0.59352   0.65690   1.000
    C238    C    0.08385   0.41930   0.67031   1.000
    C239    C    0.58342   0.41934   0.67025   1.000
    C240    C    0.13503   0.56500   0.70351   1.000
    C241    C    0.63406   0.56516   0.70338   1.000
    C242    C    0.13347   0.47662   0.71045   1.000
    C243    C    0.63280   0.47683   0.71037   1.000
    C244    C    0.03483   0.44648   0.62383   1.000
    C245    C    0.53429   0.44634   0.62376   1.000
    C246    C    0.03572   0.53475   0.61760   1.000
    C247    C    0.53488   0.53457   0.61747   1.000
    C248    C    0.34139   0.59777   0.80933   1.000
    C249    C    0.84126   0.59714   0.80920   1.000
    C250    C    0.25906   0.55339   0.84959   1.000
    C251    C    0.75922   0.55290   0.84967   1.000
    C252    C    0.23040   0.69181   0.88194   1.000
    C253    C    0.72964   0.69145   0.88131   1.000
    C254    C    0.31392   0.73753   0.84291   1.000
    C255    C    0.81264   0.73704   0.84190   1.000
    C256    C    0.27560   0.65316   0.04540   1.000
    C257    C    0.77856   0.65358   0.04541   1.000
    C258    C    0.35230   0.68667   0.09095   1.000
    C259    C    0.85535   0.68672   0.09094   1.000
    C260    C    0.42371   0.63983   0.11686   1.000
    C261    C    0.92679   0.63978   0.11679   1.000
    C262    C    0.49005   0.68781   0.16010   1.000
    C263    C    0.99325   0.68773   0.16004   1.000
    C264    C    0.06930   0.65005   0.18557   1.000
    C265    C    0.56588   0.65001   0.18569   1.000
    C266    C    0.13015   0.69272   0.22714   1.000
    C267    C    0.62680   0.69278   0.22715   1.000
    C268    C    0.11769   0.77419   0.24920   1.000
    C269    C    0.61489   0.77445   0.24914   1.000
    C270    C    0.04508   0.81296   0.22173   1.000
    C271    C    0.54243   0.81334   0.22152   1.000
    C272    C    0.48258   0.77205   0.17726   1.000
    C273    C    0.98549   0.77185   0.17735   1.000
    C274    C    0.35269   0.77035   0.10772   1.000
    C275    C    0.85564   0.77031   0.10785   1.000
    C276    C    0.41326   0.90383   0.15744   1.000
    C277    C    0.91571   0.90366   0.15778   1.000
    C278    C    0.41589   0.07769   0.17116   1.000
    C279    C    0.91677   0.07744   0.17130   1.000
    C280    C    0.36445   0.93168   0.20387   1.000
    C281    C    0.86577   0.93125   0.20388   1.000
    C282    C    0.36619   0.01996   0.21108   1.000
    C283    C    0.86673   0.01945   0.21098   1.000
    C284    C    0.46476   0.05121   0.12462   1.000
    C285    C    0.96679   0.05121   0.12510   1.000
    C286    C    0.46367   0.96301   0.11811   1.000
    C287    C    0.96647   0.96310   0.11869   1.000
    C288    C    0.15982   0.90066   0.31020   1.000
    C289    C    0.65834   0.90111   0.30986   1.000
    C290    C    0.24215   0.94534   0.35044   1.000
    C291    C    0.74117   0.94545   0.34995   1.000
    C292    C    0.27174   0.80717   0.38321   1.000
    C293    C    0.76976   0.80703   0.38280   1.000
    C294    C    0.18827   0.76113   0.34419   1.000
    C295    C    0.68570   0.76137   0.34400   1.000
    C296    C    0.25430   0.39249   0.09941   1.000
    C297    C    0.75480   0.39262   0.09954   1.000
    C298    C    0.17776   0.31512   0.20676   1.000
    C299    C    0.67798   0.31519   0.20687   1.000
    C300    C    0.41639   0.31510   0.35068   1.000
    C301    C    0.91636   0.31504   0.35065   1.000
    C302    C    0.24727   0.10635   0.59930   1.000
    C303    C    0.74747   0.10646   0.59923   1.000
    C304    C    0.32449   0.18424   0.70636   1.000
    C305    C    0.82463   0.18428   0.70630   1.000
    C306    C    0.08616   0.18424   0.85079   1.000
    C307    C    0.58598   0.18424   0.85089   1.000
    C308    C    0.24754   0.60586   0.89959   1.000
    C309    C    0.74746   0.60590   0.89939   1.000
    C310    C    0.32470   0.68410   0.79261   1.000
    C311    C    0.82370   0.68297   0.79193   1.000
    C312    C    0.08673   0.68456   0.64879   1.000
    C313    C    0.58572   0.68455   0.64849   1.000
    C314    C    0.25409   0.89296   0.40060   1.000
    C315    C    0.75299   0.89310   0.40015   1.000
    C316    C    0.17702   0.81449   0.29375   1.000
    C317    C    0.67464   0.81466   0.29348   1.000
    C318    C    0.41285   0.81298   0.14900   1.000
    C319    C    0.91566   0.81285   0.14923   1.000
    C320    C    0.02777   0.90329   0.46122   1.000
    C321    C    0.52778   0.90313   0.46154   1.000
    C322    C    0.47418   0.59639   0.96166   1.000
    C323    C    0.97369   0.59593   0.96108   1.000
    C324    C    0.47358   0.09687   0.53820   1.000
    C325    C    0.97337   0.09667   0.53758   1.000
    C326    C    0.02830   0.40176   0.03747   1.000
    C327    C    0.52873   0.40307   0.03803   1.000
    C328    C    0.25111   0.07084   0.45896   1.000
    C329    C    0.75097   0.07069   0.45880   1.000
    C330    C    0.23832   0.20722   0.48134   1.000
    C331    C    0.73856   0.20713   0.48129   1.000
    C332    C    0.43471   0.06496   0.39440   1.000
    C333    C    0.93325   0.06409   0.39314   1.000
    C334    C    0.25094   0.42872   0.95820   1.000
    C335    C    0.75090   0.42869   0.95834   1.000
    C336    C    0.26234   0.29257   0.98254   1.000
    C337    C    0.76227   0.29252   0.98250   1.000
    C338    C    0.06693   0.43407   0.89380   1.000
    C339    C    0.56689   0.43413   0.89391   1.000
    C340    C    0.25026   0.92933   0.54070   1.000
    C341    C    0.75030   0.92923   0.54065   1.000
    C342    C    0.26399   0.79315   0.51820   1.000
    C343    C    0.76313   0.79293   0.51793   1.000
    C344    C    0.06645   0.93422   0.60500   1.000
    C345    C    0.56675   0.93466   0.60507   1.000
    C346    C    0.25088   0.56943   0.03981   1.000
    C347    C    0.75301   0.56989   0.03970   1.000
    C348    C    0.23793   0.70587   0.01722   1.000
    C349    C    0.74166   0.70667   0.01707   1.000
    C350    C    0.43346   0.56347   0.10596   1.000
    C351    C    0.93642   0.56341   0.10582   1.000
    C352    C    0.20772   0.15574   0.25433   1.000
    C353    C    0.70770   0.15572   0.25435   1.000
    C354    C    0.41671   0.66624   0.32343   1.000
    C355    C    0.91672   0.66623   0.32342   1.000
    C356    C    0.29588   0.34435   0.75302   1.000
    C357    C    0.79591   0.34434   0.75302   1.000
    C358    C    0.08334   0.83337   0.82220   1.000
    C359    C    0.58335   0.83340   0.82221   1.000
    C360    C    0.29588   0.84437   0.74573   1.000
    C361    C    0.79166   0.84074   0.74330   1.000
    C362    C    0.08336   0.33334   0.67657   1.000
    C363    C    0.58334   0.33343   0.67656   1.000
    C364    C    0.20813   0.65558   0.24692   1.000
    C365    C    0.70443   0.65543   0.24699   1.000
    C366    C    0.41663   0.16349   0.17781   1.000
    C367    C    0.91666   0.16317   0.17700   1.000
    O368    O    0.76011   0.68013   0.03124   1.000
    O369    O    0.25677   0.67952   0.03131   1.000
    O370    O    0.44834   0.43655   0.03416   1.000
    O371    O    0.31112   0.43126   0.06485   1.000
    O372    O    0.40070   0.51675   0.06813   1.000
    O373    O    0.30944   0.44937   0.99425   1.000
    O374    O    0.94841   0.43579   0.03388   1.000
    O375    O    0.81166   0.43122   0.06492   1.000
    O376    O    0.90247   0.51662   0.06806   1.000
    O377    O    0.80971   0.44926   0.99432   1.000
    O378    O    0.76579   0.61174   0.04255   1.000
    O379    O    0.69364   0.54915   0.00416   1.000
    O380    O    0.26324   0.61130   0.04260   1.000
    O381    O    0.19220   0.54877   0.00410   1.000
    O382    O    0.31395   0.66992   0.06817   1.000
    O383    O    0.81696   0.67015   0.06817   1.000
    O384    O    0.22063   0.38833   0.08813   1.000
    O385    O    0.72114   0.38847   0.08825   1.000
    O386    O    0.27358   0.28728   0.09845   1.000
    O387    O    0.77403   0.28739   0.09861   1.000
    O388    O    0.48279   0.95132   0.10030   1.000
    O389    O    0.98324   0.95155   0.10100   1.000
    O390    O    0.32699   0.78842   0.09741   1.000
    O391    O    0.82992   0.78839   0.09756   1.000
    O392    O    0.85549   0.72852   0.09939   1.000
    O393    O    0.89107   0.66325   0.10386   1.000
    O394    O    0.35249   0.72851   0.09933   1.000
    O395    O    0.38801   0.66325   0.10390   1.000
    O396    O    0.48368   0.07507   0.10956   1.000
    O397    O    0.98340   0.07513   0.11010   1.000
    O398    O    0.26307   0.34965   0.10841   1.000
    O399    O    0.24846   0.41891   0.12431   1.000
    O400    O    0.76353   0.34977   0.10855   1.000
    O401    O    0.74895   0.41905   0.12443   1.000
    O402    O    0.93161   0.60159   0.11131   1.000
    O403    O    0.42859   0.60165   0.11141   1.000
    O404    O    0.38277   0.79166   0.12836   1.000
    O405    O    0.88565   0.79158   0.12854   1.000
    O406    O    0.96002   0.66375   0.13841   1.000
    O407    O    0.45688   0.66382   0.13848   1.000
    O408    O    0.30909   0.31134   0.12796   1.000
    O409    O    0.23021   0.28404   0.13704   1.000
    O410    O    0.80950   0.31145   0.12813   1.000
    O411    O    0.73059   0.28415   0.13716   1.000
    O412    O    0.46422   0.00711   0.12136   1.000
    O413    O    0.43846   0.93342   0.13777   1.000
    O414    O    0.96663   0.00716   0.12189   1.000
    O415    O    0.94109   0.93338   0.13823   1.000
    O416    O    0.44033   0.06445   0.14789   1.000
    O417    O    0.94178   0.06432   0.14820   1.000
    O418    O    0.15189   0.25471   0.14520   1.000
    O419    O    0.65225   0.25481   0.14527   1.000
    O420    O    0.23336   0.47598   0.14188   1.000
    O421    O    0.73386   0.47613   0.14200   1.000
    O422    O    0.41306   0.85840   0.15322   1.000
    O423    O    0.44772   0.79252   0.16313   1.000
    O424    O    0.27976   0.45278   0.15982   1.000
    O425    O    0.20159   0.42324   0.16944   1.000
    O426    O    0.91569   0.85825   0.15350   1.000
    O427    O    0.95057   0.79235   0.16329   1.000
    O428    O    0.78024   0.45291   0.15995   1.000
    O429    O    0.70203   0.42338   0.16955   1.000
    O430    O    0.19749   0.23040   0.16347   1.000
    O431    O    0.18317   0.28820   0.18171   1.000
    O432    O    0.69782   0.23050   0.16357   1.000
    O433    O    0.68345   0.28828   0.18181   1.000
    O434    O    0.38886   0.91776   0.18065   1.000
    O435    O    0.89074   0.91745   0.18083   1.000
    O436    O    0.98937   0.72979   0.16869   1.000
    O437    O    0.03127   0.66889   0.17280   1.000
    O438    O    0.48632   0.72993   0.16868   1.000
    O439    O    0.52796   0.66891   0.17289   1.000
    O440    O    0.12272   0.39860   0.17966   1.000
    O441    O    0.62313   0.39878   0.17973   1.000
    O442    O    0.07476   0.61866   0.17798   1.000
    O443    O    0.57124   0.61856   0.17817   1.000
    O444    O    0.41626   0.12059   0.17448   1.000
    O445    O    0.39104   0.04883   0.19112   1.000
    O446    O    0.91672   0.12030   0.17415   1.000
    O447    O    0.89175   0.04844   0.19114   1.000
    O448    O    0.51250   0.79270   0.19939   1.000
    O449    O    0.01528   0.79241   0.19954   1.000
    O450    O    0.09972   0.67139   0.20635   1.000
    O451    O    0.59634   0.67139   0.20642   1.000
    O452    O    0.16917   0.35813   0.19821   1.000
    O453    O    0.16153   0.42150   0.20851   1.000
    O454    O    0.66947   0.35823   0.19832   1.000
    O455    O    0.66188   0.42163   0.20862   1.000
    O456    O    0.36532   0.97582   0.20747   1.000
    O457    O    0.34480   0.90812   0.21897   1.000
    O458    O    0.86625   0.97535   0.20743   1.000
    O459    O    0.84590   0.90762   0.21887   1.000
    O460    O    0.14807   0.29519   0.22904   1.000
    O461    O    0.64824   0.29525   0.22913   1.000
    O462    O    0.84800   0.03160   0.22870   1.000
    O463    O    0.34794   0.03226   0.22893   1.000
    O464    O    0.53630   0.84472   0.22842   1.000
    O465    O    0.57866   0.79390   0.23533   1.000
    O466    O    0.03874   0.84424   0.22871   1.000
    O467    O    0.08138   0.79357   0.23547   1.000
    O468    O    0.16914   0.67415   0.23703   1.000
    O469    O    0.12392   0.73345   0.23817   1.000
    O470    O    0.66562   0.67410   0.23707   1.000
    O471    O    0.62084   0.73361   0.23814   1.000
    O472    O    0.64476   0.79455   0.27131   1.000
    O473    O    0.14735   0.79434   0.27147   1.000
    O474    O    0.12423   0.23440   0.26250   1.000
    O475    O    0.08231   0.29495   0.26497   1.000
    O476    O    0.62434   0.23444   0.26259   1.000
    O477    O    0.58241   0.29498   0.26504   1.000
    O478    O    0.34993   0.53522   0.27129   1.000
    O479    O    0.84958   0.53519   0.27141   1.000
    O480    O    0.16890   0.17463   0.26400   1.000
    O481    O    0.66894   0.17465   0.26406   1.000
    O482    O    0.04029   0.34606   0.27156   1.000
    O483    O    0.54035   0.34606   0.27162   1.000
    O484    O    0.34819   0.41119   0.28064   1.000
    O485    O    0.84787   0.41114   0.28077   1.000
    O486    O    0.65918   0.92121   0.29083   1.000
    O487    O    0.16058   0.92080   0.29121   1.000
    O488    O    0.09928   0.17230   0.29432   1.000
    O489    O    0.59946   0.17240   0.29449   1.000
    O490    O    0.01609   0.29418   0.30069   1.000
    O491    O    0.51619   0.29422   0.30079   1.000
    O492    O    0.36812   0.47873   0.29249   1.000
    O493    O    0.39294   0.55162   0.30924   1.000
    O494    O    0.86786   0.47870   0.29257   1.000
    O495    O    0.89280   0.55159   0.30928   1.000
    O496    O    0.66649   0.85789   0.30167   1.000
    O497    O    0.68017   0.78801   0.31874   1.000
    O498    O    0.16842   0.85758   0.30197   1.000
    O499    O    0.18264   0.78781   0.31897   1.000
    O500    O    0.39239   0.42037   0.31903   1.000
    O501    O    0.89224   0.42033   0.31907   1.000
    O502    O    0.62066   0.89894   0.31993   1.000
    O503    O    0.69976   0.92328   0.32990   1.000
    O504    O    0.12206   0.89821   0.32022   1.000
    O505    O    0.20099   0.92300   0.33032   1.000
    O506    O    0.07347   0.11954   0.32264   1.000
    O507    O    0.03054   0.17014   0.32750   1.000
    O508    O    0.57382   0.11972   0.32289   1.000
    O509    O    0.53084   0.17030   0.32776   1.000
    O510    O    0.98928   0.23147   0.33140   1.000
    O511    O    0.95116   0.29438   0.33671   1.000
    O512    O    0.48951   0.23158   0.33161   1.000
    O513    O    0.45123   0.29444   0.33679   1.000
    O514    O    0.91706   0.62328   0.32640   1.000
    O515    O    0.41707   0.62329   0.32640   1.000
    O516    O    0.77821   0.95255   0.33928   1.000
    O517    O    0.27925   0.95267   0.33983   1.000
    O518    O    0.44219   0.56682   0.35254   1.000
    O519    O    0.94225   0.56680   0.35251   1.000
    O520    O    0.69421   0.73029   0.33744   1.000
    O521    O    0.19718   0.73021   0.33759   1.000
    O522    O    0.95875   0.16509   0.36130   1.000
    O523    O    0.45928   0.16541   0.36176   1.000
    O524    O    0.41669   0.36063   0.34643   1.000
    O525    O    0.44197   0.43564   0.36198   1.000
    O526    O    0.91665   0.36058   0.34642   1.000
    O527    O    0.94202   0.43560   0.36159   1.000
    O528    O    0.64918   0.75522   0.35556   1.000
    O529    O    0.72773   0.78420   0.36340   1.000
    O530    O    0.15167   0.75465   0.35567   1.000
    O531    O    0.23001   0.78415   0.36370   1.000
    O532    O    0.73228   0.97273   0.35704   1.000
    O533    O    0.74708   0.91928   0.37505   1.000
    O534    O    0.23295   0.97267   0.35755   1.000
    O535    O    0.24812   0.91915   0.37552   1.000
    O536    O    0.88582   0.29360   0.37109   1.000
    O537    O    0.38581   0.29370   0.37112   1.000
    O538    O    0.80686   0.81126   0.37218   1.000
    O539    O    0.30892   0.81167   0.37266   1.000
    O540    O    0.96710   0.50918   0.37832   1.000
    O541    O    0.98355   0.57692   0.39085   1.000
    O542    O    0.46694   0.50920   0.37874   1.000
    O543    O    0.48563   0.57693   0.39094   1.000
    O544    O    0.98355   0.45332   0.39910   1.000
    O545    O    0.48623   0.45333   0.39955   1.000
    O546    O    0.92907   0.10253   0.38786   1.000
    O547    O    0.88935   0.16456   0.39540   1.000
    O548    O    0.76138   0.85006   0.39147   1.000
    O549    O    0.77165   0.78772   0.40190   1.000
    O550    O    0.43017   0.10321   0.38880   1.000
    O551    O    0.38981   0.16493   0.39583   1.000
    O552    O    0.26292   0.85006   0.39190   1.000
    O553    O    0.27368   0.78784   0.40225   1.000
    O554    O    0.85454   0.23015   0.39987   1.000
    O555    O    0.82963   0.29032   0.40169   1.000
    O556    O    0.35460   0.23036   0.40001   1.000
    O557    O    0.32948   0.29045   0.40165   1.000
    O558    O    0.90032   0.01739   0.43099   1.000
    O559    O    0.40128   0.01800   0.43189   1.000
    O560    O    0.71943   0.88922   0.41143   1.000
    O561    O    0.81020   0.93190   0.43449   1.000
    O562    O    0.22046   0.88886   0.41183   1.000
    O563    O    0.31097   0.93200   0.43498   1.000
    O564    O    0.81503   0.17130   0.43073   1.000
    O565    O    0.31513   0.17152   0.43092   1.000
    O566    O    0.76362   0.11258   0.45602   1.000
    O567    O    0.75741   0.18080   0.46727   1.000
    O568    O    0.26370   0.11273   0.45617   1.000
    O569    O    0.25730   0.18093   0.46736   1.000
    O570    O    0.69227   0.04986   0.49453   1.000
    O571    O    0.19225   0.04987   0.49458   1.000
    O572    O    0.94758   0.93699   0.46503   1.000
    O573    O    0.44782   0.93709   0.46545   1.000
    O574    O    0.80885   0.94996   0.50474   1.000
    O575    O    0.30906   0.95019   0.50503   1.000
    O576    O    0.74419   0.81917   0.53197   1.000
    O577    O    0.24487   0.81933   0.53224   1.000
    O578    O    0.05338   0.06278   0.53389   1.000
    O579    O    0.19033   0.06763   0.56475   1.000
    O580    O    0.09992   0.98156   0.56760   1.000
    O581    O    0.55357   0.06295   0.53423   1.000
    O582    O    0.69052   0.06775   0.56475   1.000
    O583    O    0.60016   0.98184   0.56767   1.000
    O584    O    0.73777   0.88732   0.54333   1.000
    O585    O    0.23801   0.88742   0.54348   1.000
    O586    O    0.68649   0.82840   0.56844   1.000
    O587    O    0.18701   0.82843   0.56867   1.000
    O588    O    0.78115   0.11032   0.58805   1.000
    O589    O    0.28095   0.11021   0.58812   1.000
    O590    O    0.72908   0.21192   0.59751   1.000
    O591    O    0.22896   0.21183   0.59758   1.000
    O592    O    0.51571   0.54636   0.59965   1.000
    O593    O    0.01658   0.54662   0.59980   1.000
    O594    O    0.67234   0.70935   0.59739   1.000
    O595    O    0.17362   0.70961   0.59786   1.000
    O596    O    0.64718   0.76941   0.59921   1.000
    O597    O    0.61196   0.83481   0.60354   1.000
    O598    O    0.14797   0.76946   0.59951   1.000
    O599    O    0.11215   0.83459   0.60359   1.000
    O600    O    0.51548   0.42266   0.60858   1.000
    O601    O    0.01595   0.42284   0.60865   1.000
    O602    O    0.73906   0.14948   0.60792   1.000
    O603    O    0.75301   0.08015   0.62432   1.000
    O604    O    0.23889   0.14939   0.60798   1.000
    O605    O    0.25281   0.08006   0.62439   1.000
    O606    O    0.07125   0.89602   0.61055   1.000
    O607    O    0.57146   0.89645   0.61065   1.000
    O608    O    0.61618   0.70599   0.62803   1.000
    O609    O    0.11721   0.70606   0.62836   1.000
    O610    O    0.04239   0.83365   0.63745   1.000
    O611    O    0.54276   0.83424   0.63771   1.000
    O612    O    0.69338   0.18826   0.62706   1.000
    O613    O    0.77238   0.21521   0.63624   1.000
    O614    O    0.19325   0.18821   0.62711   1.000
    O615    O    0.27227   0.21513   0.63628   1.000
    O616    O    0.53458   0.49045   0.62061   1.000
    O617    O    0.55997   0.56404   0.63718   1.000
    O618    O    0.03527   0.49061   0.62071   1.000
    O619    O    0.06090   0.56413   0.63735   1.000
    O620    O    0.55885   0.43284   0.64700   1.000
    O621    O    0.05934   0.43289   0.64707   1.000
    O622    O    0.85081   0.24423   0.64446   1.000
    O623    O    0.35071   0.24411   0.64449   1.000
    O624    O    0.76743   0.02301   0.64230   1.000
    O625    O    0.26726   0.02293   0.64240   1.000
    O626    O    0.58539   0.63904   0.65269   1.000
    O627    O    0.55098   0.70518   0.66244   1.000
    O628    O    0.08641   0.63904   0.65294   1.000
    O629    O    0.05157   0.70495   0.66254   1.000
    O630    O    0.72138   0.04677   0.65996   1.000
    O631    O    0.79975   0.07586   0.66960   1.000
    O632    O    0.22118   0.04669   0.66003   1.000
    O633    O    0.29955   0.07578   0.66969   1.000
    O634    O    0.80545   0.26891   0.66247   1.000
    O635    O    0.81938   0.21110   0.68108   1.000
    O636    O    0.30538   0.26885   0.66248   1.000
    O637    O    0.31926   0.21104   0.68112   1.000
    O638    O    0.60956   0.57934   0.68014   1.000
    O639    O    0.11056   0.57926   0.68030   1.000
    O640    O    0.01257   0.76741   0.66755   1.000
    O641    O    0.97034   0.82818   0.67111   1.000
    O642    O    0.51279   0.76803   0.66780   1.000
    O643    O    0.47165   0.82938   0.67187   1.000
    O644    O    0.92647   0.87820   0.67560   1.000
    O645    O    0.42892   0.88007   0.67692   1.000
    O646    O    0.87875   0.10009   0.67983   1.000
    O647    O    0.37855   0.09999   0.67993   1.000
    O648    O    0.58338   0.37638   0.67341   1.000
    O649    O    0.60811   0.44808   0.69031   1.000
    O650    O    0.08361   0.37632   0.67344   1.000
    O651    O    0.10866   0.44796   0.69038   1.000
    O652    O    0.98633   0.70474   0.69841   1.000
    O653    O    0.48620   0.70532   0.69855   1.000
    O654    O    0.90120   0.82546   0.70401   1.000
    O655    O    0.40338   0.82732   0.70527   1.000
    O656    O    0.83280   0.14108   0.69804   1.000
    O657    O    0.83992   0.07767   0.70876   1.000
    O658    O    0.33263   0.14103   0.69812   1.000
    O659    O    0.33968   0.07760   0.70886   1.000
    O660    O    0.63343   0.52099   0.70688   1.000
    O661    O    0.65376   0.58858   0.71853   1.000
    O662    O    0.13425   0.52081   0.70698   1.000
    O663    O    0.15475   0.58839   0.71867   1.000
    O664    O    0.85445   0.20423   0.72854   1.000
    O665    O    0.35432   0.20420   0.72858   1.000
    O666    O    0.65120   0.46446   0.72822   1.000
    O667    O    0.15183   0.46417   0.72828   1.000
    O668    O    0.96257   0.65290   0.72770   1.000
    O669    O    0.91970   0.70351   0.73396   1.000
    O670    O    0.46209   0.65339   0.72769   1.000
    O671    O    0.42018   0.70452   0.73443   1.000
    O672    O    0.83105   0.82239   0.73395   1.000
    O673    O    0.87680   0.76346   0.73600   1.000
    O674    O    0.33434   0.82525   0.73586   1.000
    O675    O    0.37850   0.76517   0.73708   1.000
    O676    O    0.85343   0.70292   0.76966   1.000
    O677    O    0.35445   0.70415   0.77039   1.000
    O678    O    0.87859   0.26509   0.76179   1.000
    O679    O    0.92030   0.20444   0.76457   1.000
    O680    O    0.37850   0.26509   0.76180   1.000
    O681    O    0.42018   0.20442   0.76463   1.000
    O682    O    0.15094   0.96481   0.77072   1.000
    O683    O    0.83441   0.32517   0.76291   1.000
    O684    O    0.33436   0.32518   0.76291   1.000
    O685    O    0.65196   0.96500   0.77111   1.000
    O686    O    0.96224   0.15329   0.77140   1.000
    O687    O    0.46210   0.15327   0.77151   1.000
    O688    O    0.15370   0.08888   0.78061   1.000
    O689    O    0.65457   0.08905   0.78103   1.000
    O690    O    0.34044   0.57759   0.79041   1.000
    O691    O    0.84049   0.57673   0.79039   1.000
    O692    O    0.40345   0.32714   0.79355   1.000
    O693    O    0.90353   0.32712   0.79357   1.000
    O694    O    0.98645   0.20511   0.80050   1.000
    O695    O    0.48630   0.20512   0.80059   1.000
    O696    O    0.13347   0.02119   0.79219   1.000
    O697    O    0.10824   0.94814   0.80866   1.000
    O698    O    0.63414   0.02132   0.79249   1.000
    O699    O    0.60856   0.94822   0.80881   1.000
    O700    O    0.83248   0.64006   0.80056   1.000
    O701    O    0.81817   0.71001   0.81691   1.000
    O702    O    0.33304   0.64093   0.80097   1.000
    O703    O    0.31931   0.71081   0.81776   1.000
    O704    O    0.10993   0.07931   0.81903   1.000
    O705    O    0.61014   0.07938   0.81921   1.000
    O706    O    0.87908   0.59983   0.81929   1.000
    O707    O    0.80024   0.57502   0.82943   1.000
    O708    O    0.37918   0.60008   0.81938   1.000
    O709    O    0.30023   0.57558   0.82946   1.000
    O710    O    0.42904   0.37978   0.82189   1.000
    O711    O    0.47178   0.32908   0.82709   1.000
    O712    O    0.92913   0.37974   0.82190   1.000
    O713    O    0.97189   0.32904   0.82707   1.000
    O714    O    0.08353   0.87630   0.82545   1.000
    O715    O    0.58350   0.87633   0.82547   1.000
    O716    O    0.01309   0.26769   0.83122   1.000
    O717    O    0.05136   0.20488   0.83671   1.000
    O718    O    0.51295   0.26772   0.83131   1.000
    O719    O    0.55119   0.20489   0.83681   1.000
    O720    O    0.80354   0.76780   0.83500   1.000
    O721    O    0.22193   0.54618   0.83894   1.000
    O722    O    0.72207   0.54541   0.83906   1.000
    O723    O    0.05945   0.93253   0.85203   1.000
    O724    O    0.55894   0.93249   0.85190   1.000
    O725    O    0.30518   0.76852   0.83622   1.000
    O726    O    0.04302   0.33377   0.86134   1.000
    O727    O    0.54292   0.33382   0.86141   1.000
    O728    O    0.84935   0.74382   0.85333   1.000
    O729    O    0.77114   0.71425   0.86160   1.000
    O730    O    0.08592   0.13877   0.84654   1.000
    O731    O    0.06079   0.06366   0.86203   1.000
    O732    O    0.58573   0.13877   0.84662   1.000
    O733    O    0.56020   0.06361   0.86194   1.000
    O734    O    0.35056   0.74387   0.85441   1.000
    O735    O    0.27216   0.71467   0.86242   1.000
    O736    O    0.26813   0.52262   0.85679   1.000
    O737    O    0.25330   0.57962   0.87459   1.000
    O738    O    0.76851   0.52231   0.85705   1.000
    O739    O    0.75334   0.57940   0.87453   1.000
    O740    O    0.11658   0.20559   0.87133   1.000
    O741    O    0.61640   0.20558   0.87142   1.000
    O742    O    0.69233   0.68682   0.87080   1.000
    O743    O    0.19318   0.68748   0.87135   1.000
    O744    O    0.53457   0.98982   0.87830   1.000
    O745    O    0.51526   0.92188   0.89013   1.000
    O746    O    0.03554   0.98993   0.87857   1.000
    O747    O    0.01651   0.92202   0.89048   1.000
    O748    O    0.73855   0.64868   0.89035   1.000
    O749    O    0.72794   0.71104   0.90024   1.000
    O750    O    0.51560   0.04551   0.89929   1.000
    O751    O    0.01691   0.04567   0.89964   1.000
    O752    O    0.23897   0.64884   0.89076   1.000
    O753    O    0.22864   0.71117   0.90097   1.000
    O754    O    0.07168   0.39587   0.88833   1.000
    O755    O    0.11222   0.33423   0.89568   1.000
    O756    O    0.57161   0.39593   0.88842   1.000
    O757    O    0.61210   0.33426   0.89577   1.000
    O758    O    0.14749   0.26886   0.90018   1.000
    O759    O    0.17270   0.20880   0.90210   1.000
    O760    O    0.64734   0.26886   0.90028   1.000
    O761    O    0.67252   0.20878   0.90219   1.000
    O762    O    0.10023   0.48109   0.93110   1.000
    O763    O    0.60058   0.48127   0.93127   1.000
    O764    O    0.78113   0.61013   0.91067   1.000
    O765    O    0.69087   0.56715   0.93401   1.000
    O766    O    0.28118   0.60981   0.91088   1.000
    O767    O    0.19054   0.56699   0.93399   1.000
    O768    O    0.18664   0.32783   0.93104   1.000
    O769    O    0.68651   0.32782   0.93113   1.000
    O770    O    0.23811   0.38680   0.95589   1.000
    O771    O    0.24381   0.31873   0.96806   1.000
    O772    O    0.73803   0.38678   0.95600   1.000
    O773    O    0.74371   0.31869   0.96808   1.000
    O774    O    0.05361   0.56202   0.96474   1.000
    O775    O    0.55423   0.56240   0.96514   1.000
    O776    O    0.30948   0.02094   0.46416   1.000
    O777    O    0.80918   0.02069   0.46382   1.000
    O778    O    0.19223   0.47842   0.96330   1.000
    O779    O    0.69259   0.47855   0.96348   1.000
    O780    O    0.19182   0.97912   0.53545   1.000
    O781    O    0.69193   0.97913   0.53546   1.000
    O782    O    0.30941   0.51973   0.03506   1.000
    O783    O    0.81077   0.51986   0.03500   1.000
loop_
    _geom_bond_atom_site_label_1
    _geom_bond_atom_site_label_2
    _geom_bond_distance
    _geom_bond_site_symmetry_2
    _ccdc_geom_bond_type
    C349   O368      0.62255      .   S
    C257   O368      0.62255      .   S
    C348   O369      0.62204      .   S
    C256   O369      0.62204      .   S
    C6     O370      1.28960      .   S
    C327   O370      1.28960      .   S
    C6     O371      1.20305      .   S
    C296   O371      1.20305      .   S
    C6     O372      1.19073      .   S
    C350   O372      1.19073      .   S
    C6     O373      1.16327  1_554   S
    C334   O373      1.16327      .   S
    C7     O374      1.28809      .   S
    C326   O374      1.28809  1_455   S
    C7     O375      1.20336      .   S
    C297   O375      1.20336      .   S
    C7     O376      1.19415      .   S
    C351   O376      1.19415      .   S
    C7     O377      1.16436  1_554   S
    C335   O377      1.16436      .   S
    C347   O378      0.65182      .   S
    C257   O378      0.65182      .   S
    C347   O379      1.16176      .   S
    C3     O379      1.16176  1_556   S
    C346   O380      0.65159      .   S
    C256   O380      0.65159      .   S
    C346   O381      1.15866      .   S
    C2     O381      1.15866  1_556   S
    C256   O382      0.75720      .   S
    C258   O382      0.75720      .   S
    C257   O383      0.75677      .   S
    C259   O383      0.75677      .   S
    C38    O384      0.51735      .   S
    C296   O384      0.51735      .   S
    C39    O385      0.51727      .   S
    C297   O385      0.51727      .   S
    C32    O386      0.54871      .   S
    C172   O386      0.54871      .   S
    C33    O387      0.54866      .   S
    C173   O387      0.54866      .   S
    C116   O388      0.54506      .   S
    C286   O388      0.54506      .   S
    C117   O389      0.52572  1_455   S
    C287   O389      0.52572      .   S
    C108   O390      0.54431      .   S
    C274   O390      0.54431      .   S
    C109   O391      0.54430      .   S
    C275   O391      0.54430      .   S
    C259   O392      0.68805      .   S
    C275   O392      0.68805      .   S
    C259   O393      0.72557      .   S
    C261   O393      0.72557      .   S
    C258   O394      0.68805      .   S
    C274   O394      0.68805      .   S
    C258   O395      0.72524      .   S
    C260   O395      0.72524      .   S
    C114   O396      0.54451      .   S
    C284   O396      0.54451      .   S
    C115   O397      0.53445  1_455   S
    C285   O397      0.53445      .   S
    C296   O398      0.73757      .   S
    C172   O398      0.73757      .   S
    C296   O399      0.73657      .   S
    C170   O399      0.73657      .   S
    C297   O400      0.73759      .   S
    C173   O400      0.73759      .   S
    C297   O401      0.73657      .   S
    C171   O401      0.73657      .   S
    C351   O402      0.63070      .   S
    C261   O402      0.63070      .   S
    C350   O403      0.63069      .   S
    C260   O403      0.63069      .   S
    C274   O404      0.68058      .   S
    C318   O404      0.68058      .   S
    C275   O405      0.68066      .   S
    C319   O405      0.68066      .   S
    C261   O406      0.73461      .   S
    C263   O406      0.73461      .   S
    C260   O407      0.73424      .   S
    C262   O407      0.73424      .   S
    C172   O408      0.55025      .   S
    C30    O408      0.55025      .   S
    C172   O409      0.76184      .   S
    C174   O409      0.76184      .   S
    C173   O410      0.55025      .   S
    C31    O410      0.55025      .   S
    C173   O411      0.76183      .   S
    C175   O411      0.76183      .   S
    C286   O412      0.69740  1_565   S
    C284   O412      0.69740      .   S
    C286   O413      0.69885      .   S
    C276   O413      0.69885      .   S
    C287   O414      0.69750  1_565   S
    C285   O414      0.69750      .   S
    C287   O415      0.69901      .   S
    C277   O415      0.69901      .   S
    C284   O416      0.69527      .   S
    C278   O416      0.69527      .   S
    C285   O417      0.69538      .   S
    C279   O417      0.69538      .   S
    C34    O418      0.55356      .   S
    C174   O418      0.55356      .   S
    C35    O419      0.55350      .   S
    C175   O419      0.55350      .   S
    C26    O420      0.54844      .   S
    C170   O420      0.54844      .   S
    C27    O421      0.54850      .   S
    C171   O421      0.54850      .   S
    C318   O422      0.72183      .   S
    C276   O422      0.72183      .   S
    C318   O423      0.70077      .   S
    C272   O423      0.70077      .   S
    C170   O424      0.54950      .   S
    C28    O424      0.54950      .   S
    C170   O425      0.76211      .   S
    C168   O425      0.76211      .   S
    C319   O426      0.72220      .   S
    C277   O426      0.72220      .   S
    C319   O427      0.70076      .   S
    C273   O427      0.70076      .   S
    C171   O428      0.54961      .   S
    C29    O428      0.54961      .   S
    C171   O429      0.76248      .   S
    C169   O429      0.76248      .   S
    C174   O430      0.54625      .   S
    C36    O430      0.54625      .   S
    C174   O431      0.74278      .   S
    C298   O431      0.74278      .   S
    C175   O432      0.54627      .   S
    C37    O432      0.54627      .   S
    C175   O433      0.74295      .   S
    C299   O433      0.74295      .   S
    C276   O434      0.69830      .   S
    C280   O434      0.69830      .   S
    C277   O435      0.69843      .   S
    C281   O435      0.69843      .   S
    C263   O436      0.70521      .   S
    C273   O436      0.70521      .   S
    C263   O437      0.70447  1_655   S
    C264   O437      0.70447      .   S
    C262   O438      0.70506      .   S
    C272   O438      0.70506      .   S
    C262   O439      0.70407      .   S
    C265   O439      0.70407      .   S
    C24    O440      0.55408      .   S
    C168   O440      0.55408      .   S
    C25    O441      0.55408      .   S
    C169   O441      0.55408      .   S
    C104   O442      0.54442      .   S
    C264   O442      0.54442      .   S
    C105   O443      0.54441      .   S
    C265   O443      0.54441      .   S
    C278   O444      0.67923      .   S
    C366   O444      0.67923      .   S
    C278   O445      0.69543      .   S
    C282   O445      0.69543      .   S
    C279   O446      0.67856      .   S
    C367   O446      0.67856      .   S
    C279   O447      0.69548      .   S
    C283   O447      0.69548      .   S
    C272   O448      0.70163      .   S
    C271   O448      0.70163      .   S
    C273   O449      0.70138  1_655   S
    C270   O449      0.70138      .   S
    C264   O450      0.68542      .   S
    C266   O450      0.68542      .   S
    C265   O451      0.68504      .   S
    C267   O451      0.68504      .   S
    C168   O452      0.73627      .   S
    C298   O452      0.73627      .   S
    C168   O453      0.54967      .   S
    C22    O453      0.54967      .   S
    C169   O454      0.73640      .   S
    C299   O454      0.73640      .   S
    C169   O455      0.54960      .   S
    C23    O455      0.54960      .   S
    C280   O456      0.69823      .   S
    C282   O456      0.69823  1_545   S
    C280   O457      0.54576      .   S
    C110   O457      0.54576      .   S
    C281   O458      0.69839      .   S
    C283   O458      0.69839  1_545   S
    C281   O459      0.54574      .   S
    C111   O459      0.54574      .   S
    C298   O460      0.69911      .   S
    C148   O460      0.69911      .   S
    C299   O461      0.69921      .   S
    C149   O461      0.69921      .   S
    C283   O462      0.54395      .   S
    C113   O462      0.54395      .   S
    C282   O463      0.54397      .   S
    C112   O463      0.54397      .   S
    C271   O464      0.54194      .   S
    C107   O464      0.54194      .   S
    C271   O465      0.70191      .   S
    C269   O465      0.70191      .   S
    C270   O466      0.54190      .   S
    C106   O466      0.54190      .   S
    C270   O467      0.70136      .   S
    C268   O467      0.70136      .   S
    C266   O468      0.68642      .   S
    C364   O468      0.68642      .   S
    C266   O469      0.71287      .   S
    C268   O469      0.71287      .   S
    C267   O470      0.68562      .   S
    C365   O470      0.68562      .   S
    C267   O471      0.71306      .   S
    C269   O471      0.71306      .   S
    C269   O472      0.69904      .   S
    C317   O472      0.69904      .   S
    C268   O473      0.69984      .   S
    C316   O473      0.69984      .   S
    C148   O474      0.71343      .   S
    C146   O474      0.71343      .   S
    C148   O475      0.70233      .   S
    C150   O475      0.70233      .   S
    C149   O476      0.71350      .   S
    C147   O476      0.71350      .   S
    C149   O477      0.70235      .   S
    C151   O477      0.70235      .   S
    C16    O478      0.54400      .   S
    C162   O478      0.54400      .   S
    C17    O479      0.54398      .   S
    C163   O479      0.54398      .   S
    C352   O480      0.68694      .   S
    C146   O480      0.68694      .   S
    C353   O481      0.68695      .   S
    C147   O481      0.68695      .   S
    C10    O482      0.54196      .   S
    C150   O482      0.54196      .   S
    C11    O483      0.54197      .   S
    C151   O483      0.54197      .   S
    C14    O484      0.54646      .   S
    C160   O484      0.54646      .   S
    C15    O485      0.54578      .   S
    C161   O485      0.54578      .   S
    C119   O486      0.54996      .   S
    C289   O486      0.54996      .   S
    C118   O487      0.54964      .   S
    C288   O487      0.54964      .   S
    C146   O488      0.68533      .   S
    C144   O488      0.68533      .   S
    C147   O489      0.68539      .   S
    C145   O489      0.68539      .   S
    C150   O490      0.70141      .   S
    C153   O490      0.70141  1_655   S
    C151   O491      0.70158      .   S
    C152   O491      0.70158      .   S
    C162   O492      0.69871      .   S
    C160   O492      0.69871      .   S
    C162   O493      0.69572      .   S
    C158   O493      0.69572      .   S
    C163   O494      0.69875      .   S
    C161   O494      0.69875      .   S
    C163   O495      0.69578      .   S
    C159   O495      0.69578      .   S
    C317   O496      0.73630      .   S
    C289   O496      0.73630      .   S
    C317   O497      0.74283      .   S
    C295   O497      0.74283      .   S
    C316   O498      0.73637      .   S
    C288   O498      0.73637      .   S
    C316   O499      0.74267      .   S
    C294   O499      0.74267      .   S
    C160   O500      0.69852      .   S
    C156   O500      0.69852      .   S
    C161   O501      0.69861      .   S
    C157   O501      0.69861      .   S
    C289   O502      0.55402      .   S
    C121   O502      0.55402      .   S
    C289   O503      0.76255      .   S
    C291   O503      0.76255      .   S
    C288   O504      0.55405      .   S
    C120   O504      0.55405      .   S
    C288   O505      0.76236      .   S
    C290   O505      0.76236      .   S
    C144   O506      0.54444      .   S
    C8     O506      0.54444      .   S
    C144   O507      0.70454      .   S
    C143   O507      0.70454  1_655   S
    C145   O508      0.54447      .   S
    C9     O508      0.54447      .   S
    C145   O509      0.70468      .   S
    C142   O509      0.70468      .   S
    C153   O510      0.70522      .   S
    C143   O510      0.70522      .   S
    C153   O511      0.70129      .   S
    C301   O511      0.70129      .   S
    C152   O512      0.70531      .   S
    C142   O512      0.70531      .   S
    C152   O513      0.70127      .   S
    C300   O513      0.70127      .   S
    C355   O514      0.68058      .   S
    C159   O514      0.68058      .   S
    C354   O515      0.68057      .   S
    C158   O515      0.68057      .   S
    C125   O516      0.54951      .   S
    C291   O516      0.54951      .   S
    C124   O517      0.54955      .   S
    C290   O517      0.54955      .   S
    C158   O518      0.69553      .   S
    C164   O518      0.69553      .   S
    C159   O519      0.69558      .   S
    C165   O519      0.69558      .   S
    C133   O520      0.54625      .   S
    C295   O520      0.54625      .   S
    C132   O521      0.54626      .   S
    C294   O521      0.54626      .   S
    C143   O522      0.73422      .   S
    C141   O522      0.73422      .   S
    C142   O523      0.73456      .   S
    C140   O523      0.73456      .   S
    C156   O524      0.72296      .   S
    C300   O524      0.72296      .   S
    C156   O525      0.69914      .   S
    C166   O525      0.69914      .   S
    C157   O526      0.72306      .   S
    C301   O526      0.72306      .   S
    C157   O527      0.69359      .   S
    C167   O527      0.69359      .   S
    C295   O528      0.55348      .   S
    C131   O528      0.55348      .   S
    C295   O529      0.76180      .   S
    C293   O529      0.76180      .   S
    C294   O530      0.55351      .   S
    C130   O530      0.55351      .   S
    C294   O531      0.76181      .   S
    C292   O531      0.76181      .   S
    C291   O532      0.49696      .   S
    C123   O532      0.49696  1_545   S
    C291   O533      0.73658      .   S
    C315   O533      0.73658      .   S
    C290   O534      0.49962      .   S
    C122   O534      0.49962  1_545   S
    C290   O535      0.73650      .   S
    C314   O535      0.73650      .   S
    C301   O536      0.68113      .   S
    C155   O536      0.68113      .   S
    C300   O537      0.68127      .   S
    C154   O537      0.68127      .   S
    C127   O538      0.55022      .   S
    C293   O538      0.55022      .   S
    C126   O539      0.55020      .   S
    C292   O539      0.55020      .   S
    C165   O540      0.69694      .   S
    C167   O540      0.69694      .   S
    C165   O541      0.53504      .   S
    C19    O541      0.53504  1_455   S
    C164   O542      0.69772      .   S
    C166   O542      0.69772      .   S
    C164   O543      0.54449      .   S
    C18    O543      0.54449      .   S
    C167   O544      0.53162      .   S
    C21    O544      0.53162  1_455   S
    C166   O545      0.54488      .   S
    C20    O545      0.54488      .   S
    C141   O546      0.63069      .   S
    C333   O546      0.63069      .   S
    C141   O547      0.72551      .   S
    C139   O547      0.72551      .   S
    C293   O548      0.73757      .   S
    C315   O548      0.73757      .   S
    C293   O549      0.54866      .   S
    C129   O549      0.54866      .   S
    C140   O550      0.63052      .   S
    C332   O550      0.63052      .   S
    C140   O551      0.72536      .   S
    C138   O551      0.72536      .   S
    C292   O552      0.73759      .   S
    C314   O552      0.73759      .   S
    C292   O553      0.54783      .   S
    C128   O553      0.54783      .   S
    C155   O554      0.68833      .   S
    C139   O554      0.68833      .   S
    C155   O555      0.54437      .   S
    C13    O555      0.54437      .   S
    C154   O556      0.68823      .   S
    C138   O556      0.68823      .   S
    C154   O557      0.54436      .   S
    C12    O557      0.54436      .   S
    C333   O558      1.19038      .   S
    C1     O558      1.19038  1_565   S
    C332   O559      1.18787      .   S
    C0     O559      1.18787  1_565   S
    C315   O560      0.51732      .   S
    C135   O560      0.51732      .   S
    C315   O561      1.20217      .   S
    C1     O561      1.20217      .   S
    C314   O562      0.51730      .   S
    C134   O562      0.51730      .   S
    C314   O563      1.20202      .   S
    C0     O563      1.20202      .   S
    C139   O564      0.75726      .   S
    C137   O564      0.75726      .   S
    C138   O565      0.75725      .   S
    C136   O565      0.75725      .   S
    C137   O566      0.65187      .   S
    C329   O566      0.65187      .   S
    C137   O567      0.62262      .   S
    C331   O567      0.62262      .   S
    C136   O568      0.65196      .   S
    C328   O568      0.65196      .   S
    C136   O569      0.62261      .   S
    C330   O569      0.62261      .   S
    C329   O570      1.16125      .   S
    C5     O570      1.16125      .   S
    C328   O571      1.16097      .   S
    C4     O571      1.16097      .   S
    C320   O572      1.28953  1_455   S
    C1     O572      1.28953      .   S
    C321   O573      1.28933      .   S
    C0     O573      1.28933      .   S
    C1     O574      1.16271      .   S
    C341   O574      1.16271      .   S
    C0     O575      1.16092      .   S
    C340   O575      1.16092      .   S
    C343   O576      0.62257      .   S
    C217   O576      0.62257      .   S
    C342   O577      0.62295      .   S
    C216   O577      0.62295      .   S
    C4     O578      1.28884      .   S
    C325   O578      1.28884  1_655   S
    C4     O579      1.20318      .   S
    C302   O579      1.20318      .   S
    C4     O580      1.18981  1_545   S
    C344   O580      1.18981      .   S
    C5     O581      1.28944      .   S
    C324   O581      1.28944      .   S
    C5     O582      1.20206      .   S
    C303   O582      1.20206      .   S
    C5     O583      1.18827  1_545   S
    C345   O583      1.18827      .   S
    C341   O584      0.65181      .   S
    C217   O584      0.65181      .   S
    C340   O585      0.65186      .   S
    C216   O585      0.65186      .   S
    C217   O586      0.75619      .   S
    C219   O586      0.75619      .   S
    C216   O587      0.75617      .   S
    C218   O587      0.75617      .   S
    C71    O588      0.51733      .   S
    C303   O588      0.51733      .   S
    C70    O589      0.51736      .   S
    C302   O589      0.51736      .   S
    C65    O590      0.54917      .   S
    C213   O590      0.54917      .   S
    C64    O591      0.54870      .   S
    C212   O591      0.54870      .   S
    C85    O592      0.54491      .   S
    C247   O592      0.54491      .   S
    C84    O593      0.54491  1_655   S
    C246   O593      0.54491      .   S
    C77    O594      0.54452      .   S
    C235   O594      0.54452      .   S
    C76    O595      0.54437      .   S
    C234   O595      0.54437      .   S
    C219   O596      0.68820      .   S
    C235   O596      0.68820      .   S
    C219   O597      0.72491      .   S
    C221   O597      0.72491      .   S
    C218   O598      0.68813      .   S
    C234   O598      0.68813      .   S
    C218   O599      0.72468      .   S
    C220   O599      0.72468      .   S
    C83    O600      0.54450      .   S
    C245   O600      0.54450      .   S
    C82    O601      0.54450  1_655   S
    C244   O601      0.54450      .   S
    C303   O602      0.73762      .   S
    C213   O602      0.73762      .   S
    C303   O603      0.73655      .   S
    C211   O603      0.73655      .   S
    C302   O604      0.73762      .   S
    C212   O604      0.73762      .   S
    C302   O605      0.73652      .   S
    C210   O605      0.73652      .   S
    C344   O606      0.63042      .   S
    C220   O606      0.63042      .   S
    C345   O607      0.63056      .   S
    C221   O607      0.63056      .   S
    C235   O608      0.68094      .   S
    C313   O608      0.68094      .   S
    C234   O609      0.68085      .   S
    C312   O609      0.68085      .   S
    C220   O610      0.73444      .   S
    C222   O610      0.73444      .   S
    C221   O611      0.73385      .   S
    C223   O611      0.73385      .   S
    C213   O612      0.55020      .   S
    C63    O612      0.55020      .   S
    C213   O613      0.76186      .   S
    C215   O613      0.76186      .   S
    C212   O614      0.55022      .   S
    C62    O614      0.55022      .   S
    C212   O615      0.76185      .   S
    C214   O615      0.76185      .   S
    C247   O616      0.69763      .   S
    C245   O616      0.69763      .   S
    C247   O617      0.69847      .   S
    C237   O617      0.69847      .   S
    C246   O618      0.69751      .   S
    C244   O618      0.69751      .   S
    C246   O619      0.69870      .   S
    C236   O619      0.69870      .   S
    C245   O620      0.69544      .   S
    C239   O620      0.69544      .   S
    C244   O621      0.69550      .   S
    C238   O621      0.69550      .   S
    C67    O622      0.55349      .   S
    C215   O622      0.55349      .   S
    C66    O623      0.55346      .   S
    C214   O623      0.55346      .   S
    C59    O624      0.54852  1_565   S
    C211   O624      0.54852      .   S
    C58    O625      0.54848  1_565   S
    C210   O625      0.54848      .   S
    C313   O626      0.72251      .   S
    C237   O626      0.72251      .   S
    C313   O627      0.70073      .   S
    C233   O627      0.70073      .   S
    C312   O628      0.72240      .   S
    C236   O628      0.72240      .   S
    C312   O629      0.70057      .   S
    C232   O629      0.70057      .   S
    C211   O630      0.54960      .   S
    C61    O630      0.54960      .   S
    C211   O631      0.76226      .   S
    C209   O631      0.76226      .   S
    C210   O632      0.54959      .   S
    C60    O632      0.54959      .   S
    C210   O633      0.76236      .   S
    C208   O633      0.76236      .   S
    C215   O634      0.54629      .   S
    C69    O634      0.54629      .   S
    C215   O635      0.74290      .   S
    C305   O635      0.74290      .   S
    C214   O636      0.54631      .   S
    C68    O636      0.54631      .   S
    C214   O637      0.74293      .   S
    C304   O637      0.74293      .   S
    C237   O638      0.69917      .   S
    C241   O638      0.69917      .   S
    C236   O639      0.69881      .   S
    C240   O639      0.69881      .   S
    C222   O640      0.70483      .   S
    C232   O640      0.70483      .   S
    C222   O641      0.70417  1_455   S
    C225   O641      0.70417      .   S
    C223   O642      0.70485      .   S
    C233   O642      0.70485      .   S
    C223   O643      0.70410      .   S
    C224   O643      0.70410      .   S
    C73    O644      0.54444      .   S
    C225   O644      0.54444      .   S
    C72    O645      0.54457      .   S
    C224   O645      0.54457      .   S
    C57    O646      0.55408      .   S
    C209   O646      0.55408      .   S
    C56    O647      0.55408      .   S
    C208   O647      0.55408      .   S
    C239   O648      0.68018      .   S
    C363   O648      0.68018      .   S
    C239   O649      0.69562      .   S
    C243   O649      0.69562      .   S
    C238   O650      0.68000      .   S
    C362   O650      0.68000      .   S
    C238   O651      0.69561      .   S
    C242   O651      0.69561      .   S
    C232   O652      0.70231  1_455   S
    C231   O652      0.70231      .   S
    C233   O653      0.70206      .   S
    C230   O653      0.70206      .   S
    C225   O654      0.68505      .   S
    C227   O654      0.68505      .   S
    C224   O655      0.68474      .   S
    C226   O655      0.68474      .   S
    C209   O656      0.73635      .   S
    C305   O656      0.73635      .   S
    C209   O657      0.54973      .   S
    C55    O657      0.54973      .   S
    C208   O658      0.73635      .   S
    C304   O658      0.73635      .   S
    C208   O659      0.54963      .   S
    C54    O659      0.54963      .   S
    C241   O660      0.69853      .   S
    C243   O660      0.69853      .   S
    C241   O661      0.54582      .   S
    C79    O661      0.54582      .   S
    C240   O662      0.69851      .   S
    C242   O662      0.69851      .   S
    C240   O663      0.54577      .   S
    C78    O663      0.54577      .   S
    C305   O664      0.69910      .   S
    C189   O664      0.69910      .   S
    C304   O665      0.69885      .   S
    C188   O665      0.69885      .   S
    C243   O666      0.54399      .   S
    C81    O666      0.54399      .   S
    C242   O667      0.54398      .   S
    C80    O667      0.54398      .   S
    C231   O668      0.54195      .   S
    C75    O668      0.54195      .   S
    C231   O669      0.70197      .   S
    C229   O669      0.70197      .   S
    C230   O670      0.54193      .   S
    C74    O670      0.54193      .   S
    C230   O671      0.70229      .   S
    C228   O671      0.70229      .   S
    C227   O672      0.68601      .   S
    C361   O672      0.68601      .   S
    C227   O673      0.71323      .   S
    C229   O673      0.71323      .   S
    C226   O674      0.68651      .   S
    C360   O674      0.68651      .   S
    C226   O675      0.71351      .   S
    C228   O675      0.71351      .   S
    C229   O676      0.69922      .   S
    C311   O676      0.69922      .   S
    C228   O677      0.69908      .   S
    C310   O677      0.69908      .   S
    C189   O678      0.71338      .   S
    C187   O678      0.71338      .   S
    C189   O679      0.70232      .   S
    C191   O679      0.70232      .   S
    C188   O680      0.71334      .   S
    C186   O680      0.71334      .   S
    C188   O681      0.70254      .   S
    C190   O681      0.70254      .   S
    C48    O682      0.54398      .   S
    C202   O682      0.54398      .   S
    C357   O683      0.68634      .   S
    C187   O683      0.68634      .   S
    C356   O684      0.68613      .   S
    C186   O684      0.68613      .   S
    C49    O685      0.54377      .   S
    C203   O685      0.54377      .   S
    C43    O686      0.54196      .   S
    C191   O686      0.54196      .   S
    C42    O687      0.54199      .   S
    C190   O687      0.54199      .   S
    C46    O688      0.54576      .   S
    C200   O688      0.54576      .   S
    C47    O689      0.54574      .   S
    C201   O689      0.54574      .   S
    C86    O690      0.54960      .   S
    C248   O690      0.54960      .   S
    C87    O691      0.54960      .   S
    C249   O691      0.54960      .   S
    C186   O692      0.68481      .   S
    C184   O692      0.68481      .   S
    C187   O693      0.68497      .   S
    C185   O693      0.68497      .   S
    C191   O694      0.70151      .   S
    C192   O694      0.70151  1_455   S
    C190   O695      0.70159      .   S
    C193   O695      0.70159      .   S
    C202   O696      0.69855  1_565   S
    C200   O696      0.69855      .   S
    C202   O697      0.69559      .   S
    C198   O697      0.69559      .   S
    C203   O698      0.69861  1_565   S
    C201   O698      0.69861      .   S
    C203   O699      0.69585      .   S
    C199   O699      0.69585      .   S
    C311   O700      0.73632      .   S
    C249   O700      0.73632      .   S
    C311   O701      0.74296      .   S
    C255   O701      0.74296      .   S
    C310   O702      0.73636      .   S
    C248   O702      0.73636      .   S
    C310   O703      0.74276      .   S
    C254   O703      0.74276      .   S
    C200   O704      0.69857      .   S
    C196   O704      0.69857      .   S
    C201   O705      0.69861      .   S
    C197   O705      0.69861      .   S
    C249   O706      0.55413      .   S
    C89    O706      0.55413      .   S
    C249   O707      0.76226      .   S
    C251   O707      0.76226      .   S
    C248   O708      0.55411      .   S
    C88    O708      0.55411      .   S
    C248   O709      0.76227      .   S
    C250   O709      0.76227      .   S
    C184   O710      0.54467      .   S
    C40    O710      0.54467      .   S
    C184   O711      0.70442      .   S
    C183   O711      0.70442      .   S
    C185   O712      0.54440      .   S
    C41    O712      0.54440      .   S
    C185   O713      0.70410      .   S
    C182   O713      0.70410  1_455   S
    C358   O714      0.68003      .   S
    C198   O714      0.68003      .   S
    C359   O715      0.68008      .   S
    C199   O715      0.68008      .   S
    C192   O716      0.70505      .   S
    C182   O716      0.70505      .   S
    C192   O717      0.70123      .   S
    C306   O717      0.70123      .   S
    C193   O718      0.70506      .   S
    C183   O718      0.70506      .   S
    C193   O719      0.70117      .   S
    C307   O719      0.70117      .   S
    C101   O720      0.54637      .   S
    C255   O720      0.54637      .   S
    C92    O721      0.54961      .   S
    C250   O721      0.54961      .   S
    C93    O722      0.54956      .   S
    C251   O722      0.54956      .   S
    C198   O723      0.69553      .   S
    C204   O723      0.69553      .   S
    C199   O724      0.69544      .   S
    C205   O724      0.69544      .   S
    C100   O725      0.54627      .   S
    C254   O725      0.54627      .   S
    C182   O726      0.73367      .   S
    C180   O726      0.73367      .   S
    C183   O727      0.73387      .   S
    C181   O727      0.73387      .   S
    C255   O728      0.55350      .   S
    C99    O728      0.55350      .   S
    C255   O729      0.76195      .   S
    C253   O729      0.76195      .   S
    C196   O730      0.72253      .   S
    C306   O730      0.72253      .   S
    C196   O731      0.69901      .   S
    C206   O731      0.69901      .   S
    C197   O732      0.72258      .   S
    C307   O732      0.72258      .   S
    C197   O733      0.69898      .   S
    C207   O733      0.69898      .   S
    C254   O734      0.55346      .   S
    C98    O734      0.55346      .   S
    C254   O735      0.76177      .   S
    C252   O735      0.76177      .   S
    C250   O736      0.54842      .   S
    C90    O736      0.54842      .   S
    C250   O737      0.73652      .   S
    C308   O737      0.73652      .   S
    C251   O738      0.54843      .   S
    C91    O738      0.54843      .   S
    C251   O739      0.73659      .   S
    C309   O739      0.73659      .   S
    C306   O740      0.68128      .   S
    C194   O740      0.68128      .   S
    C307   O741      0.68125      .   S
    C195   O741      0.68125      .   S
    C95    O742      0.55032      .   S
    C253   O742      0.55032      .   S
    C94    O743      0.55026      .   S
    C252   O743      0.55026      .   S
    C205   O744      0.69766      .   S
    C207   O744      0.69766  1_545   S
    C205   O745      0.54449      .   S
    C51    O745      0.54449      .   S
    C204   O746      0.69766      .   S
    C206   O746      0.69766  1_545   S
    C204   O747      0.54382      .   S
    C50    O747      0.54382  1_655   S
    C253   O748      0.73758      .   S
    C309   O748      0.73758      .   S
    C253   O749      0.54875      .   S
    C97    O749      0.54875      .   S
    C207   O750      0.54495      .   S
    C53    O750      0.54495      .   S
    C206   O751      0.54483      .   S
    C52    O751      0.54483  1_655   S
    C252   O752      0.73757      .   S
    C308   O752      0.73757      .   S
    C252   O753      0.54874      .   S
    C96    O753      0.54874      .   S
    C180   O754      0.63058      .   S
    C338   O754      0.63058      .   S
    C180   O755      0.72492      .   S
    C178   O755      0.72492      .   S
    C181   O756      0.63057      .   S
    C339   O756      0.63057      .   S
    C181   O757      0.72508      .   S
    C179   O757      0.72508      .   S
    C194   O758      0.68812      .   S
    C178   O758      0.68812      .   S
    C194   O759      0.54438      .   S
    C44    O759      0.54438      .   S
    C195   O760      0.68819      .   S
    C179   O760      0.68819      .   S
    C195   O761      0.54437      .   S
    C45    O761      0.54437      .   S
    C338   O762      1.18572      .   S
    C2     O762      1.18572      .   S
    C339   O763      1.18915      .   S
    C3     O763      1.18915      .   S
    C309   O764      0.51731      .   S
    C103   O764      0.51731      .   S
    C309   O765      1.20231      .   S
    C3     O765      1.20231      .   S
    C308   O766      0.51733      .   S
    C102   O766      0.51733      .   S
    C308   O767      1.20256      .   S
    C2     O767      1.20256      .   S
    C178   O768      0.75666      .   S
    C176   O768      0.75666      .   S
    C179   O769      0.75659      .   S
    C177   O769      0.75659      .   S
    C176   O770      0.65170      .   S
    C334   O770      0.65170      .   S
    C176   O771      0.62262      .   S
    C336   O771      0.62262      .   S
    C177   O772      0.65173      .   S
    C335   O772      0.65173      .   S
    C177   O773      0.62208      .   S
    C337   O773      0.62208      .   S
    C323   O774      1.28743  1_655   S
    C2     O774      1.28743      .   S
    C322   O775      1.28943      .   S
    C3     O775      1.28943      .   S
    C328   O776      1.21603      .   S
    C0     O776      1.21603  1_565   S
    C329   O777      1.21526      .   S
    C1     O777      1.21526  1_565   S
    C334   O778      1.21744      .   S
    C2     O778      1.21744      .   S
    C335   O779      1.21553      .   S
    C3     O779      1.21553      .   S
    C340   O780      1.21546      .   S
    C4     O780      1.21546  1_545   S
    C341   O781      1.21605      .   S
    C5     O781      1.21605  1_545   S
    C346   O782      1.21502      .   S
    C6     O782      1.21502      .   S
    C347   O783      1.21080      .   S
    C7     O783      1.21080      .   S
