# CIF file generated by openbabel 2.4.90, see http://openbabel.sf.net
data_I
_chemical_name_common ''
_cell_length_a 6.902
_cell_length_b 7.896
_cell_length_c 10.093
_cell_angle_alpha 93.851
_cell_angle_beta 109.485
_cell_angle_gamma 105.528
_space_group_name_H-M_alt 'P 1'
_space_group_name_Hall 'P 1'
loop_
    _symmetry_equiv_pos_as_xyz
    x,y,z
loop_
    _atom_site_label
    _atom_site_type_symbol
    _atom_site_fract_x
    _atom_site_fract_y
    _atom_site_fract_z
    _atom_site_occupancy
    N0      N    0.11378   0.34952   0.82377   1.000
    N1      N    0.11378   0.34952   0.32025   1.000
    Zr2     Zr   0.48050   0.02006   0.03596   1.000
    Zr3     Zr   0.48050   0.02007   0.53594   1.000
    O4      O    0.39151   0.09490   0.97689   1.000
    O5      O    0.38536   0.10573   0.62701   1.000
    O6      O    0.38537   0.10573   0.12614   1.000
    O7      O    0.39150   0.09490   0.47395   1.000
loop_
    _geom_bond_atom_site_label_1
    _geom_bond_atom_site_label_2
    _geom_bond_distance
    _geom_bond_site_symmetry_2
    _ccdc_geom_bond_type
    N0     O4        3.25720      .   S
    Zr2    O4        1.03889  1_554   S
    N0     O5        3.88132      .   S
    Zr3    O5        1.51338      .   S
    Zr2    O6        1.50698      .   S
    N1     O6        3.86431      .   S
    Zr3    O7        1.05145      .   S
    N1     O7        3.25901      .   S
