# CIF file generated by openbabel 2.4.90, see http://openbabel.sf.net
data_I
_chemical_name_common ''
_cell_length_a 6.902
_cell_length_b 7.896
_cell_length_c 10.093
_cell_angle_alpha 93.851
_cell_angle_beta 109.485
_cell_angle_gamma 105.528
_space_group_name_H-M_alt 'P 1'
_space_group_name_Hall 'P 1'
loop_
    _symmetry_equiv_pos_as_xyz
    x,y,z
loop_
    _atom_site_label
    _atom_site_type_symbol
    _atom_site_fract_x
    _atom_site_fract_y
    _atom_site_fract_z
    _atom_site_occupancy
    C0      C    0.48050   0.02006   0.03596   1.000
    C1      C    0.48050   0.02007   0.53594   1.000
    C2      C    0.44517   0.60202   0.79817   1.000
    C3      C    0.44518   0.60202   0.29819   1.000
    C4      C    0.94136   0.49310   0.47989   1.000
    C5      C    0.94136   0.49310   0.00000   1.000
    C6      C    0.23174   0.33953   0.75475   1.000
    C7      C    0.23175   0.33952   0.25477   1.000
    C8      C    0.33280   0.25545   0.66736   1.000
    C9      C    0.33281   0.25544   0.16737   1.000
    C10     C    0.30707   0.51537   0.81549   1.000
    C11     C    0.30708   0.51537   0.31550   1.000
    C12     C    0.20687   0.58256   0.90257   1.000
    C13     C    0.20688   0.58256   0.40258   1.000
    C14     C    0.02657   0.45301   0.91639   1.000
    C15     C    0.02656   0.45301   0.41640   1.000
    C16     C    0.96237   0.28030   0.85203   1.000
    C17     C    0.96237   0.28030   0.35204   1.000
    C18     C    0.77514   0.13877   0.86381   1.000
    C19     C    0.77515   0.13877   0.36382   1.000
    C20     C    0.06119   0.22150   0.77142   1.000
    C21     C    0.06120   0.22150   0.27143   1.000
    C22     C    0.23291   0.09148   0.60826   1.000
    C23     C    0.23292   0.09148   0.10828   1.000
    C24     C    0.50664   0.34845   0.66126   1.000
    C25     C    0.50664   0.34845   0.16127   1.000
    C26     C    0.26620   0.74158   0.46717   1.000
    C27     C    0.26622   0.74158   0.00000   1.000
    C28     C    0.67285   0.00150   0.76936   1.000
    C29     C    0.67285   0.00151   0.26937   1.000
    C30     C    0.73774   0.17814   0.97561   1.000
    C31     C    0.73775   0.17814   0.47562   1.000
    O32     O    0.37336   0.88082   0.01798   1.000
    O33     O    0.23655   0.66207   0.95128   1.000
    O34     O    0.98396   0.47305   0.95819   1.000
    O35     O    0.35671   0.05577   0.07212   1.000
    O36     O    0.57668   0.01078   0.15266   1.000
    O37     O    0.60912   0.09910   0.00578   1.000
    O38     O    0.28286   0.17346   0.13782   1.000
    O39     O    0.41973   0.30195   0.16432   1.000
    O40     O    0.28228   0.29748   0.21107   1.000
    O41     O    0.14647   0.28051   0.26310   1.000
    O42     O    0.26941   0.42745   0.28514   1.000
    O43     O    0.72400   0.07014   0.31660   1.000
    O44     O    0.01178   0.25090   0.31174   1.000
    O45     O    0.37613   0.55869   0.30685   1.000
    O46     O    0.25698   0.54896   0.35904   1.000
    O47     O    0.86876   0.20953   0.35793   1.000
    O48     O    0.99446   0.36665   0.38422   1.000
    O49     O    0.75645   0.15845   0.41972   1.000
    O50     O    0.11672   0.51778   0.40949   1.000
    O51     O    0.23654   0.66207   0.43488   1.000
    O52     O    0.98396   0.47305   0.44814   1.000
    O53     O    0.37335   0.88082   0.50156   1.000
    O54     O    0.60912   0.09910   0.50578   1.000
    O55     O    0.35670   0.05578   0.57210   1.000
    O56     O    0.57667   0.01079   0.65265   1.000
    O57     O    0.28285   0.17347   0.63781   1.000
    O58     O    0.41972   0.30195   0.66431   1.000
    O59     O    0.28227   0.29749   0.71106   1.000
    O60     O    0.14647   0.28051   0.76309   1.000
    O61     O    0.26941   0.42745   0.78512   1.000
    O62     O    0.72400   0.07014   0.81658   1.000
    O63     O    0.01178   0.25090   0.81173   1.000
    O64     O    0.37612   0.55869   0.80683   1.000
    O65     O    0.25697   0.54896   0.85903   1.000
    O66     O    0.86876   0.20953   0.85792   1.000
    O67     O    0.99447   0.36665   0.88421   1.000
    O68     O    0.75644   0.15845   0.91971   1.000
    O69     O    0.11672   0.51778   0.90948   1.000
loop_
    _geom_bond_atom_site_label_1
    _geom_bond_atom_site_label_2
    _geom_bond_distance
    _geom_bond_site_symmetry_2
    _ccdc_geom_bond_type
    C27    O32       1.11217      .   S
    C0     O32       1.11217  1_545   S
    C27    O33       0.70736  1_554   S
    C12    O33       0.70736      .   S
    C5     O34       0.62310  1_554   S
    C14    O34       0.62310  1_455   S
    C0     O35       1.12515      .   S
    C23    O35       1.12515      .   S
    C0     O36       1.16167      .   S
    C29    O36       1.16167      .   S
    C0     O37       1.08607      .   S
    C30    O37       1.08607  1_556   S
    C23    O38       0.64251      .   S
    C9     O38       0.64251      .   S
    C25    O39       0.62575      .   S
    C9     O39       0.62575      .   S
    C9     O40       0.75583      .   S
    C7     O40       0.75583      .   S
    C7     O41       0.67976      .   S
    C21    O41       0.67976      .   S
    C7     O42       0.68199      .   S
    C11    O42       0.68199      .   S
    C29    O43       0.62937      .   S
    C19    O43       0.62937      .   S
    C21    O44       0.67674      .   S
    C17    O44       0.67674  1_655   S
    C3     O45       0.54435      .   S
    C11    O45       0.54435      .   S
    C11    O46       0.71963      .   S
    C13    O46       0.71963      .   S
    C17    O47       0.75498      .   S
    C19    O47       0.75498      .   S
    C17    O48       0.67886      .   S
    C15    O48       0.67886  1_455   S
    C19    O49       0.63771      .   S
    C31    O49       0.63771      .   S
    C13    O50       0.71902      .   S
    C15    O50       0.71902      .   S
    C13    O51       0.63364      .   S
    C26    O51       0.63364      .   S
    C15    O52       0.54326  1_455   S
    C4     O52       0.54326      .   S
    C26    O53       1.10378      .   S
    C1     O53       1.10378  1_545   S
    C31    O54       1.08602      .   S
    C1     O54       1.08602      .   S
    C1     O55       1.12514      .   S
    C22    O55       1.12514      .   S
    C1     O56       1.16171      .   S
    C28    O56       1.16171      .   S
    C22    O57       0.64251      .   S
    C8     O57       0.64251      .   S
    C24    O58       0.62576      .   S
    C8     O58       0.62576      .   S
    C8     O59       0.75582      .   S
    C6     O59       0.75582      .   S
    C6     O60       0.67975      .   S
    C20    O60       0.67975      .   S
    C6     O61       0.68199      .   S
    C10    O61       0.68199      .   S
    C28    O62       0.62936      .   S
    C18    O62       0.62936      .   S
    C20    O63       0.67673      .   S
    C16    O63       0.67673  1_655   S
    C2     O64       0.54435      .   S
    C10    O64       0.54435      .   S
    C10    O65       0.71963      .   S
    C12    O65       0.71963      .   S
    C16    O66       0.75499      .   S
    C18    O66       0.75499      .   S
    C16    O67       0.67885      .   S
    C14    O67       0.67885  1_455   S
    C18    O68       0.63771      .   S
    C30    O68       0.63771      .   S
    C12    O69       0.71902      .   S
    C14    O69       0.71902      .   S
