# CIF file generated by openbabel 2.4.90, see http://openbabel.sf.net
data_I
_chemical_name_common ''
_cell_length_a 6.902
_cell_length_b 7.896
_cell_length_c 10.093
_cell_angle_alpha 93.851
_cell_angle_beta 109.485
_cell_angle_gamma 105.528
_space_group_name_H-M_alt 'P 1'
_space_group_name_Hall 'P 1'
loop_
    _symmetry_equiv_pos_as_xyz
    x,y,z
loop_
    _atom_site_label
    _atom_site_type_symbol
    _atom_site_fract_x
    _atom_site_fract_y
    _atom_site_fract_z
    _atom_site_occupancy
    N0      N    0.11378   0.34952   0.82377   1.000
    N1      N    0.11378   0.34952   0.32025   1.000
    Zr2     Zr   0.48050   0.02006   0.03596   1.000
    O3      O    0.35787   0.11135   0.11607   1.000
    O4      O    0.41287   0.10010   0.13621   1.000
    O5      O    0.36204   0.06761   0.97841   1.000
    O6      O    0.42098   0.12218   0.97537   1.000
    Zr7     Zr   0.48050   0.02007   0.53594   1.000
    O8      O    0.35787   0.11136   0.61694   1.000
    O9      O    0.36203   0.06762   0.47342   1.000
    O10     O    0.41286   0.10011   0.63707   1.000
    O11     O    0.42097   0.12219   0.47448   1.000
loop_
    _geom_bond_atom_site_label_1
    _geom_bond_atom_site_label_2
    _geom_bond_distance
    _geom_bond_site_symmetry_2
    _ccdc_geom_bond_type
    Zr2    O3        1.61081      .   S
    N1     O3        3.75680      .   S
    Zr2    O4        1.42421      .   S
    N1     O4        3.97912      .   S
    Zr2    O5        1.01180  1_554   S
    N0     O5        3.32438      .   S
    Zr2    O6        1.12651  1_554   S
    N0     O6        3.20957      .   S
    Zr7    O8        1.61658      .   S
    N0     O8        3.77458      .   S
    Zr7    O9        1.02942      .   S
    N1     O9        3.31926      .   S
    Zr7    O10       1.43125      .   S
    N0     O10       3.99537      .   S
    Zr7    O11       1.13064      .   S
    N1     O11       3.21742      .   S
