# CIF file generated by openbabel 2.4.90, see http://openbabel.sf.net
data_I
_chemical_name_common ''
_cell_length_a 12.563
_cell_length_b 12.561
_cell_length_c 25.828
_cell_angle_alpha 90
_cell_angle_beta 90
_cell_angle_gamma 89.992
_space_group_name_H-M_alt 'P 1'
_space_group_name_Hall 'P 1'
loop_
    _symmetry_equiv_pos_as_xyz
    x,y,z
loop_
    _atom_site_label
    _atom_site_type_symbol
    _atom_site_fract_x
    _atom_site_fract_y
    _atom_site_fract_z
    _atom_site_occupancy
    Cd0     Cd   0.25000   0.25000   0.41624   1.000
    Cd1     Cd   0.25000   0.25001   0.08376   1.000
    Cd2     Cd   0.75001   0.75002   0.58377   1.000
    H3      H    0.91645   0.55839   0.87181   1.000
    H4      H    0.93536   0.40878   0.80794   1.000
    H5      H    0.63689   0.51263   0.74083   1.000
    H6      H    0.62911   0.65167   0.80901   1.000
    H7      H    0.64265   0.32773   0.71984   1.000
    H8      H    0.70583   0.41620   0.67411   1.000
    H9      H    0.59519   0.17441   0.65500   1.000
    H10     H    0.68596   0.15662   0.60282   1.000
    H11     H    0.42013   0.11150   0.48727   1.000
    H12     H    0.55449   0.11677   0.55840   1.000
    H13     H    0.49777   0.45685   0.56774   1.000
    H14     H    0.36338   0.43470   0.49727   1.000
    H15     H    0.58358   0.94168   0.87182   1.000
    H16     H    0.56467   0.09125   0.80790   1.000
    H17     H    0.86312   0.98741   0.74082   1.000
    H18     H    0.87089   0.84837   0.80900   1.000
    H19     H    0.85738   0.17228   0.71984   1.000
    H20     H    0.79419   0.08381   0.67411   1.000
    H21     H    0.90484   0.32560   0.65500   1.000
    H22     H    0.81407   0.34340   0.60282   1.000
    H23     H    0.07987   0.38851   0.48727   1.000
    H24     H    0.94554   0.38324   0.55840   1.000
    H25     H    0.00224   0.04316   0.56774   1.000
    H26     H    0.13662   0.06531   0.49727   1.000
    H27     H    0.44176   0.41638   0.37183   1.000
    H28     H    0.59132   0.43531   0.30796   1.000
    H29     H    0.48736   0.13697   0.24073   1.000
    Cd30    Cd   0.75001   0.75002   0.91625   1.000
    H31     H    0.34835   0.12917   0.30891   1.000
    H32     H    0.67231   0.14263   0.21979   1.000
    H33     H    0.58385   0.20585   0.17407   1.000
    H34     H    0.82562   0.09515   0.15496   1.000
    H35     H    0.84336   0.18591   0.10277   1.000
    H36     H    0.88845   0.92011   0.98723   1.000
    H37     H    0.88320   0.05442   0.05836   1.000
    H38     H    0.54317   0.99776   0.06773   1.000
    H39     H    0.56532   0.86338   0.99727   1.000
    H40     H    0.05826   0.08363   0.37183   1.000
    H41     H    0.90871   0.06470   0.30795   1.000
    H42     H    0.01264   0.36304   0.24073   1.000
    H43     H    0.15166   0.37084   0.30891   1.000
    H44     H    0.82771   0.35738   0.21979   1.000
    H45     H    0.91617   0.29417   0.17407   1.000
    H46     H    0.67441   0.40487   0.15490   1.000
    H47     H    0.65666   0.31410   0.10277   1.000
    H48     H    0.61157   0.57995   0.98724   1.000
    H49     H    0.61682   0.44561   0.05836   1.000
    H50     H    0.95684   0.50228   0.06770   1.000
    H51     H    0.93470   0.63665   0.99726   1.000
    H52     H    0.08357   0.44166   0.12819   1.000
    H53     H    0.06466   0.59126   0.19200   1.000
    H54     H    0.36311   0.48739   0.25919   1.000
    H55     H    0.37089   0.34835   0.19100   1.000
    H56     H    0.35736   0.67229   0.28017   1.000
    H57     H    0.29418   0.58383   0.32590   1.000
    H58     H    0.40483   0.82562   0.34500   1.000
    H59     H    0.31405   0.84342   0.39719   1.000
    H60     H    0.57988   0.88853   0.51274   1.000
    H61     H    0.44553   0.88326   0.44161   1.000
    H62     H    0.50224   0.54318   0.43227   1.000
    H63     H    0.63662   0.56533   0.50274   1.000
    H64     H    0.41644   0.05837   0.12820   1.000
    H65     H    0.43535   0.90880   0.19207   1.000
    H66     H    0.13688   0.01261   0.25918   1.000
    H67     H    0.12911   0.15166   0.19100   1.000
    H68     H    0.14264   0.82776   0.28017   1.000
    H69     H    0.20582   0.91622   0.32590   1.000
    H70     H    0.09517   0.67443   0.34500   1.000
    H71     H    0.18595   0.65664   0.39719   1.000
    H72     H    0.92013   0.61152   0.51274   1.000
    H73     H    0.05447   0.61679   0.44161   1.000
    H74     H    0.99777   0.95687   0.43227   1.000
    H75     H    0.86339   0.93472   0.50274   1.000
    H76     H    0.55826   0.58365   0.62818   1.000
    H77     H    0.40869   0.56472   0.69206   1.000
    H78     H    0.51265   0.86306   0.75928   1.000
    H79     H    0.65167   0.87086   0.69110   1.000
    H80     H    0.32770   0.85740   0.78022   1.000
    H81     H    0.41616   0.79418   0.82594   1.000
    H82     H    0.17440   0.90489   0.84504   1.000
    H83     H    0.15665   0.81412   0.89720   1.000
    H84     H    0.11156   0.07994   0.01277   1.000
    H85     H    0.11681   0.94562   0.94165   1.000
    H86     H    0.45684   0.00225   0.93220   1.000
    H87     H    0.43469   0.13664   0.00275   1.000
    H88     H    0.94176   0.91639   0.62818   1.000
    H89     H    0.09131   0.93533   0.69205   1.000
    H90     H    0.98737   0.63699   0.75928   1.000
    H91     H    0.84836   0.62918   0.69109   1.000
    H92     H    0.17230   0.64265   0.78022   1.000
    C93     C    0.15434   0.71675   0.80119   1.000
    C94     C    0.28591   0.65660   0.86852   1.000
    C95     C    0.31341   0.44029   0.99369   1.000
    C96     C    0.30998   0.51505   0.95382   1.000
    H97     H    0.08384   0.70587   0.82594   1.000
    H98     H    0.32560   0.59517   0.84504   1.000
    H99     H    0.34335   0.68593   0.89724   1.000
    H100    H    0.38844   0.42010   0.01278   1.000
    H101    H    0.38319   0.55444   0.94165   1.000
    H102    H    0.04317   0.49775   0.93228   1.000
    H103    H    0.06531   0.36337   0.00274   1.000
    C104    C    0.85546   0.54365   0.84250   1.000
    C105    C    0.86684   0.46192   0.80695   1.000
    C106    C    0.78711   0.44759   0.76941   1.000
    C107    C    0.70027   0.51763   0.76936   1.000
    C108    C    0.69623   0.59659   0.80725   1.000
    C109    C    0.71673   0.34570   0.69886   1.000
    C110    C    0.65662   0.21409   0.63153   1.000
    C111    C    0.44032   0.18655   0.50636   1.000
    C112    C    0.51508   0.19000   0.54622   1.000
    C113    C    0.53795   0.28908   0.56864   1.000
    C114    C    0.48286   0.37903   0.55064   1.000
    C115    C    0.40895   0.36658   0.51129   1.000
    C116    C    0.64457   0.95640   0.84259   1.000
    C117    C    0.63319   0.03810   0.80695   1.000
    C118    C    0.71291   0.05242   0.76941   1.000
    C119    C    0.79975   0.98241   0.76936   1.000
    C120    C    0.80378   0.90346   0.80724   1.000
    C121    C    0.78329   0.15431   0.69886   1.000
    C122    C    0.84341   0.28592   0.63153   1.000
    C123    C    0.05969   0.31346   0.50636   1.000
    C124    C    0.98494   0.31002   0.54622   1.000
    C125    C    0.96208   0.21093   0.56864   1.000
    C126    C    0.01714   0.12098   0.55064   1.000
    C127    C    0.09106   0.13343   0.51129   1.000
    C128    C    0.45644   0.35542   0.34258   1.000
    C129    C    0.53817   0.36681   0.30694   1.000
    C130    C    0.55246   0.28712   0.26937   1.000
    C131    C    0.48240   0.20031   0.26930   1.000
    C132    C    0.40345   0.19626   0.30718   1.000
    C133    C    0.65434   0.21673   0.19882   1.000
    C134    C    0.78592   0.15659   0.13149   1.000
    C135    C    0.81341   0.94031   0.00632   1.000
    C136    C    0.80999   0.01503   0.04619   1.000
    C137    C    0.71092   0.03790   0.06861   1.000
    C138    C    0.62097   0.98286   0.05062   1.000
    C139    C    0.63342   0.90894   0.01127   1.000
    C140    C    0.04357   0.14459   0.34257   1.000
    C141    C    0.96186   0.13321   0.30694   1.000
    C142    C    0.94757   0.21289   0.26937   1.000
    C143    C    0.01761   0.29971   0.26900   1.000
    C144    C    0.09656   0.30375   0.30718   1.000
    C145    C    0.84568   0.28328   0.19882   1.000
    C146    C    0.71410   0.34343   0.13149   1.000
    C147    C    0.68660   0.55975   0.00632   1.000
    C148    C    0.69003   0.48499   0.04619   1.000
    C149    C    0.78910   0.46211   0.06861   1.000
    C150    C    0.87904   0.51719   0.05062   1.000
    C151    C    0.86659   0.59110   0.01120   1.000
    C152    C    0.75001   0.25001   0.66556   1.000
    C153    C    0.75001   0.25001   0.16552   1.000
    C154    C    0.14456   0.45638   0.15742   1.000
    C155    C    0.13318   0.53812   0.19306   1.000
    C156    C    0.21290   0.55244   0.23060   1.000
    C157    C    0.29974   0.48240   0.23065   1.000
    C158    C    0.30377   0.40344   0.19270   1.000
    C159    C    0.28328   0.65434   0.30115   1.000
    C160    C    0.34340   0.78594   0.36848   1.000
    C161    C    0.55969   0.81347   0.49365   1.000
    C162    C    0.48493   0.81003   0.45370   1.000
    C163    C    0.46206   0.71095   0.43137   1.000
    C164    C    0.51715   0.62100   0.44937   1.000
    C165    C    0.59106   0.63345   0.48872   1.000
    C166    C    0.35545   0.04364   0.15742   1.000
    C167    C    0.36682   0.96194   0.19306   1.000
    C168    C    0.28710   0.94761   0.23060   1.000
    C169    C    0.20026   0.01761   0.23060   1.000
    C170    C    0.19622   0.09657   0.19276   1.000
    C171    C    0.21672   0.84571   0.30115   1.000
    C172    C    0.15660   0.71411   0.36848   1.000
    C173    C    0.94032   0.68657   0.49364   1.000
    C174    C    0.01506   0.69001   0.45378   1.000
    C175    C    0.03793   0.78910   0.43137   1.000
    C176    C    0.98286   0.87905   0.44937   1.000
    C177    C    0.90895   0.86660   0.48872   1.000
    C178    C    0.54358   0.64461   0.65740   1.000
    C179    C    0.46185   0.63322   0.69307   1.000
    C180    C    0.44756   0.71291   0.73064   1.000
    C181    C    0.51762   0.79972   0.73071   1.000
    C182    C    0.59657   0.80376   0.69283   1.000
    C183    C    0.34566   0.78330   0.80119   1.000
    C184    C    0.21409   0.84345   0.86852   1.000
    C185    C    0.18660   0.05973   0.99360   1.000
    C186    C    0.19002   0.98501   0.95382   1.000
    C187    C    0.28909   0.96213   0.93100   1.000
    C188    C    0.37904   0.01717   0.94939   1.000
    C189    C    0.36659   0.09108   0.98870   1.000
    C190    C    0.95645   0.85544   0.65743   1.000
    C191    C    0.03816   0.86682   0.69307   1.000
    C192    C    0.05245   0.78714   0.73064   1.000
    C193    C    0.98240   0.70032   0.73071   1.000
    C194    C    0.90346   0.69628   0.69283   1.000
    C195    C    0.21091   0.53792   0.93100   1.000
    C196    C    0.12097   0.48284   0.94930   1.000
    C197    C    0.13342   0.40893   0.98874   1.000
    C198    C    0.25000   0.75003   0.33446   1.000
    C199    C    0.25000   0.75003   0.83449   1.000
    S200    S    0.55017   0.70695   0.90827   1.000
    S201    S    0.94984   0.79311   0.90826   1.000
    S202    S    0.29307   0.05019   0.40825   1.000
    S203    S    0.20693   0.44982   0.40825   1.000
    S204    S    0.44983   0.29309   0.09175   1.000
    S205    S    0.05017   0.20693   0.09174   1.000
    S206    S    0.70694   0.94984   0.59170   1.000
    S207    S    0.79308   0.55020   0.59175   1.000
    N208    N    0.77138   0.61026   0.84364   1.000
    N209    N    0.38755   0.27234   0.48854   1.000
    N210    N    0.72864   0.88979   0.84364   1.000
    N211    N    0.11246   0.22767   0.48854   1.000
    N212    N    0.38981   0.27137   0.34360   1.000
    N213    N    0.72764   0.88754   0.98852   1.000
    N214    N    0.11020   0.22864   0.34360   1.000
    N215    N    0.77238   0.61251   0.98852   1.000
    N216    N    0.22863   0.38977   0.15637   1.000
    N217    N    0.61246   0.72768   0.51147   1.000
    N218    N    0.27137   0.11025   0.15630   1.000
    N219    N    0.88755   0.77236   0.51147   1.000
    N220    N    0.61021   0.72866   0.65641   1.000
    N221    N    0.27237   0.11249   0.01149   1.000
    N222    N    0.88982   0.77139   0.65640   1.000
    N223    N    0.22763   0.38753   0.01149   1.000
    O224    O    0.80089   0.36581   0.73575   1.000
    O225    O    0.61040   0.30623   0.60680   1.000
    O226    O    0.69913   0.13421   0.73575   1.000
    O227    O    0.88963   0.19378   0.60681   1.000
    O228    O    0.63423   0.30090   0.23572   1.000
    O229    O    0.69379   0.11036   0.10679   1.000
    O230    O    0.86579   0.19912   0.23572   1.000
    O231    O    0.80624   0.38966   0.10679   1.000
    O232    O    0.19912   0.63423   0.26426   1.000
    O233    O    0.38962   0.69380   0.39320   1.000
    O234    O    0.30088   0.86583   0.26426   1.000
    O235    O    0.11038   0.80625   0.39320   1.000
    O236    O    0.36578   0.69914   0.76429   1.000
    O237    O    0.30623   0.88967   0.89322   1.000
    O238    O    0.13422   0.80091   0.76429   1.000
    O239    O    0.19377   0.61038   0.89322   1.000
loop_
    _geom_bond_atom_site_label_1
    _geom_bond_atom_site_label_2
    _geom_bond_distance
    _geom_bond_site_symmetry_2
    _ccdc_geom_bond_type
    H103   C197      1.09109  1_554   S
    H87    C189      1.09147  1_554   S
    C147   C148      1.39432      .   S
    C147   H48       1.09347  1_554   S
    C147   N215      1.34613  1_554   S
    C135   C136      1.39400  1_565   S
    C135   H36       1.09362  1_554   S
    C135   N213      1.34615  1_554   S
    C151   C150      1.38674      .   S
    C151   N215      1.34770  1_554   S
    C151   H51       1.09055  1_554   S
    C139   C138      1.38542      .   S
    C139   N213      1.34852  1_554   S
    C139   H39       1.09106  1_554   S
    N221   Cd1       2.55865      .   S
    N221   C189      1.34900  1_554   S
    N221   C185      1.34689  1_554   S
    N223   Cd1       2.55868      .   S
    N223   C197      1.34843  1_554   S
    N223   C95       1.34615  1_554   S
    H84    C185      1.09460  1_554   S
    H100   C95       1.09355  1_554   S
    C136   H37       1.09078      .   S
    C136   C137      1.40238      .   S
    C148   H49       1.09076      .   S
    C148   C149      1.40242      .   S
    C150   H50       1.08856      .   S
    C150   C149      1.40407      .   S
    C138   H38       1.08884      .   S
    C138   C137      1.40394  1_565   S
    C149   O231      1.35903      .   S
    C137   O229      1.35904      .   S
    Cd1    S205      2.57650      .   S
    Cd1    S204      2.57651      .   S
    Cd1    N218      2.58151      .   S
    Cd1    N216      2.58281      .   S
    H47    C146      1.09855      .   S
    H35    C134      1.09854      .   S
    O231   C146      1.44366      .   S
    O229   C134      1.44366      .   S
    H52    C154      1.09147      .   S
    H64    C166      1.09132      .   S
    C146   H46       1.09986      .   S
    C146   C153      1.53392      .   S
    C134   H34       1.10073      .   S
    C134   C153      1.53393      .   S
    N218   C166      1.34771      .   S
    N218   C170      1.34446      .   S
    N216   C154      1.34767      .   S
    N216   C158      1.34208      .   S
    C154   C155      1.38632      .   S
    C166   C167      1.38595  1_545   S
    C153   C145      1.53592      .   S
    C153   C133      1.53592      .   S
    H33    C133      1.10074      .   S
    H45    C145      1.10073      .   S
    H67    C170      1.09164      .   S
    H55    C158      1.09158      .   S
    H53    C155      1.08960      .   S
    H65    C167      1.08956      .   S
    C158   C157      1.39531      .   S
    C170   C169      1.39331      .   S
    C155   C156      1.40555      .   S
    C167   C168      1.40558      .   S
    C145   H44       1.10025      .   S
    C145   O230      1.44560      .   S
    C133   H32       1.10027      .   S
    C133   O228      1.44559      .   S
    C156   C157      1.40148      .   S
    C156   O232      1.35684      .   S
    C168   C169      1.40111  1_565   S
    C168   O234      1.35684      .   S
    C169   H66       1.08755      .   S
    C157   H54       1.08682      .   S
    O230   C142      1.35674      .   S
    O228   C130      1.35671      .   S
    H42    C143      1.08165      .   S
    H29    C131      1.08688      .   S
    O234   C171      1.44554      .   S
    O232   C159      1.44552      .   S
    C143   C142      1.40136  1_455   S
    C143   C144      1.39954      .   S
    C131   C130      1.40147      .   S
    C131   C132      1.39408      .   S
    C142   C141      1.40559      .   S
    C130   C129      1.40556      .   S
    H56    C159      1.10031      .   S
    H68    C171      1.10032      .   S
    C171   H69       1.10075      .   S
    C171   C198      1.53604      .   S
    C159   H57       1.10078      .   S
    C159   C198      1.53605      .   S
    C141   H41       1.08957      .   S
    C141   C140      1.38604  1_655   S
    C129   H28       1.08956      .   S
    C129   C128      1.38636      .   S
    C144   H43       1.09164      .   S
    C144   N214      1.34322      .   S
    C132   H31       1.09164      .   S
    C132   N212      1.34319      .   S
    C198   C160      1.53378      .   S
    C198   C172      1.53381      .   S
    C140   N214      1.34767      .   S
    C140   H40       1.09156      .   S
    C128   N212      1.34767      .   S
    C128   H27       1.09135      .   S
    N214   Cd0       2.58394      .   S
    N212   Cd0       2.58399      .   S
    H70    C172      1.10085      .   S
    H58    C160      1.10081      .   S
    C160   O233      1.44367      .   S
    C160   H59       1.09860      .   S
    C172   O235      1.44366      .   S
    C172   H71       1.09857      .   S
    O233   C163      1.35893      .   S
    O235   C175      1.35896      .   S
    S203   Cd0       2.57579      .   S
    S202   Cd0       2.57579      .   S
    Cd0    N209      2.55964      .   S
    Cd0    N211      2.55965      .   S
    C175   C176      1.40400  1_455   S
    C175   C174      1.40242      .   S
    C163   C164      1.40410      .   S
    C163   C162      1.40155      .   S
    H74    C176      1.08887      .   S
    H62    C164      1.08886      .   S
    H61    C162      1.09017      .   S
    H73    C174      1.09076      .   S
    C164   C165      1.38551      .   S
    C176   C177      1.38552      .   S
    C162   C161      1.39594      .   S
    C174   C173      1.39409  1_455   S
    H11    C111      1.09372      .   S
    H23    C123      1.09371      .   S
    N209   C111      1.34627      .   S
    N209   C115      1.34864      .   S
    N211   C123      1.34627      .   S
    N211   C127      1.34864      .   S
    C165   H63       1.09121      .   S
    C165   N217      1.34862      .   S
    C177   H75       1.09120      .   S
    C177   N219      1.34863      .   S
    C173   N219      1.34635      .   S
    C173   H72       1.09385      .   S
    C161   N217      1.34627      .   S
    C161   H60       1.09372      .   S
    H26    C127      1.09121      .   S
    H14    C115      1.09120      .   S
    C111   C112      1.39426      .   S
    C123   C124      1.39411  1_455   S
    C127   C126      1.38556      .   S
    C115   C114      1.38556      .   S
    N217   Cd2       2.55968      .   S
    N219   Cd2       2.55964      .   S
    C112   H12       1.09083      .   S
    C112   C113      1.40250      .   S
    C124   H24       1.09083      .   S
    C124   C125      1.40249      .   S
    C126   H25       1.08884      .   S
    C126   C125      1.40399  1_455   S
    C114   H13       1.08885      .   S
    C114   C113      1.40409      .   S
    C125   O227      1.35894      .   S
    C113   O225      1.35878      .   S
    Cd2    S206      2.57568      .   S
    Cd2    S207      2.57578      .   S
    Cd2    N222      2.58382      .   S
    Cd2    N220      2.58393      .   S
    H22    C122      1.09855      .   S
    H10    C110      1.09854      .   S
    O225   C110      1.44377      .   S
    O227   C122      1.44366      .   S
    H88    C190      1.09136      .   S
    H76    C178      1.09084      .   S
    C110   H9        1.10072      .   S
    C110   C152      1.53389      .   S
    C122   H21       1.10071      .   S
    C122   C152      1.53389      .   S
    N222   C190      1.34768      .   S
    N222   C194      1.34338      .   S
    N220   C178      1.34765      .   S
    N220   C182      1.34321      .   S
    C178   C179      1.38688      .   S
    C190   C191      1.38620  1_655   S
    C152   C121      1.53596      .   S
    C152   C109      1.53596      .   S
    H8     C109      1.10072      .   S
    H20    C121      1.10072      .   S
    H91    C194      1.09165      .   S
    H79    C182      1.09165      .   S
    H89    C191      1.08957      .   S
    H77    C179      1.08957      .   S
    C182   C181      1.39408      .   S
    C194   C193      1.39407      .   S
    C191   C192      1.40557      .   S
    C179   C180      1.40559      .   S
    C121   H19       1.10034      .   S
    C121   O226      1.44555      .   S
    C109   H7        1.10033      .   S
    C109   O224      1.44557      .   S
    C180   C181      1.40147      .   S
    C180   O236      1.35675      .   S
    C192   C193      1.40133  1_455   S
    C192   O238      1.35671      .   S
    C181   H78       1.08690      .   S
    C193   H90       1.08689      .   S
    O226   C118      1.35682      .   S
    O224   C106      1.35682      .   S
    H17    C119      1.08681      .   S
    H5     C107      1.08667      .   S
    O238   C93       1.44558      .   S
    O236   C183      1.44559      .   S
    C119   C118      1.40111  1_565   S
    C119   C120      1.39404      .   S
    C107   C106      1.40148      .   S
    C107   C108      1.39422      .   S
    C118   C117      1.40552      .   S
    C106   C105      1.40559      .   S
    H80    C183      1.10025      .   S
    H92    C93       1.10025      .   S
    C183   H81       1.10075      .   S
    C183   C199      1.53589      .   S
    C93    H97       1.10076      .   S
    C93    C199      1.53589      .   S
    C117   H16       1.08954      .   S
    C117   C116      1.38596  1_545   S
    C105   H4        1.08955      .   S
    C105   C104      1.38477      .   S
    C120   H18       1.09165      .   S
    C120   N210      1.34332      .   S
    C108   H6        1.09164      .   S
    C108   N208      1.34321      .   S
    C199   C94       1.53395      .   S
    C199   C184      1.53395      .   S
    C104   N208      1.34771      .   S
    C104   H3        1.09293      .   S
    C116   N210      1.34767      .   S
    C116   H15       1.09144      .   S
    N208   Cd30      2.58280      .   S
    N210   Cd30      2.58283      .   S
    H98    C94       1.10085      .   S
    H82    C184      1.10085      .   S
    C94    O239      1.44366      .   S
    C94    H99       1.09856      .   S
    C184   O237      1.44365      .   S
    C184   H83       1.09787      .   S
    O239   C195      1.35156      .   S
    O237   C187      1.35155      .   S
    S201   Cd30      2.57651      .   S
    S200   Cd30      2.57650      .   S
    Cd30   N215      2.55863      .   S
    Cd30   N213      2.55863      .   S
    C187   C188      1.40737  1_565   S
    C187   C186      1.40673      .   S
    C195   C196      1.40677      .   S
    C195   C96       1.40668      .   S
    H86    C188      1.08973      .   S
    H102   C196      1.08792      .   S
    H85    C186      1.09077      .   S
    H101   C96       1.09079      .   S
    C196   C197      1.38710      .   S
    C188   C189      1.38463      .   S
    C186   C185      1.39225  1_565   S
    C96    C95       1.39429      .   S
