# CIF file generated by openbabel 2.4.90, see http://openbabel.sf.net
data_I
_chemical_name_common ''
_cell_length_a 12.563
_cell_length_b 12.561
_cell_length_c 25.828
_cell_angle_alpha 90
_cell_angle_beta 90
_cell_angle_gamma 89.992
_space_group_name_H-M_alt 'P 1'
_space_group_name_Hall 'P 1'
loop_
    _symmetry_equiv_pos_as_xyz
    x,y,z
loop_
    _atom_site_label
    _atom_site_type_symbol
    _atom_site_fract_x
    _atom_site_fract_y
    _atom_site_fract_z
    _atom_site_occupancy
    Cd0     Cd   0.25000   0.25000   0.41624   1.000
    Cd1     Cd   0.25000   0.25001   0.08376   1.000
    Cd2     Cd   0.75001   0.75002   0.58377   1.000
    Cd3     Cd   0.75001   0.75002   0.91625   1.000
    S4      S    0.55017   0.70695   0.90827   1.000
    S5      S    0.94984   0.79311   0.90826   1.000
    S6      S    0.29307   0.05019   0.40825   1.000
    S7      S    0.20693   0.44982   0.40825   1.000
    S8      S    0.44983   0.29309   0.09175   1.000
    S9      S    0.05017   0.20693   0.09174   1.000
    S10     S    0.70694   0.94984   0.59170   1.000
    S11     S    0.79308   0.55020   0.59175   1.000
    Ts12    Ts   0.29585   0.25745   0.44034   1.000
    Ts13    Ts   0.20416   0.24256   0.44034   1.000
    Ts14    Ts   0.29661   0.25713   0.39203   1.000
    Ts15    Ts   0.20340   0.24288   0.39203   1.000
    Ts16    Ts   0.24288   0.29659   0.10796   1.000
    Ts17    Ts   0.25712   0.20342   0.10794   1.000
    Ts18    Ts   0.25746   0.20417   0.05967   1.000
    Ts19    Ts   0.24254   0.29585   0.05967   1.000
    Ts20    Ts   0.70416   0.74258   0.55967   1.000
    Ts21    Ts   0.79586   0.75747   0.55967   1.000
    Ts22    Ts   0.70341   0.74290   0.60798   1.000
    Ts23    Ts   0.79661   0.75714   0.60798   1.000
    Ts24    Ts   0.75713   0.70344   0.89205   1.000
    Ts25    Ts   0.74289   0.79661   0.89205   1.000
    Ts26    Ts   0.74255   0.79586   0.94034   1.000
    Ts27    Ts   0.75747   0.70419   0.94034   1.000
    Ts28    Ts   0.53650   0.73662   0.91545   1.000
    Ts29    Ts   0.96352   0.76344   0.91545   1.000
    Ts30    Ts   0.26340   0.03652   0.41543   1.000
    Ts31    Ts   0.23661   0.46349   0.41543   1.000
    Ts32    Ts   0.46351   0.26343   0.08456   1.000
    Ts33    Ts   0.03649   0.23660   0.08455   1.000
    Ts34    Ts   0.73662   0.96351   0.58454   1.000
    Ts35    Ts   0.76340   0.53654   0.58457   1.000
loop_
    _geom_bond_atom_site_label_1
    _geom_bond_atom_site_label_2
    _geom_bond_distance
    _geom_bond_site_symmetry_2
    _ccdc_geom_bond_type
    Cd1    S9        2.57650      .   S
    Cd1    S8        2.57651      .   S
    S7     Cd0       2.57579      .   S
    S6     Cd0       2.57579      .   S
    Cd2    S10       2.57568      .   S
    Cd2    S11       2.57578      .   S
    S5     Cd3       2.57651      .   S
    S4     Cd3       2.57650      .   S
    Cd0    Ts12      0.85321      .   S
    Cd0    Ts13      0.85322      .   S
    Cd0    Ts14      0.86133      .   S
    Cd0    Ts15      0.86131      .   S
    Cd1    Ts16      0.86094      .   S
    Cd1    Ts17      0.86050      .   S
    Cd1    Ts18      0.85288      .   S
    Cd1    Ts19      0.85289      .   S
    Cd2    Ts20      0.85323      .   S
    Cd2    Ts21      0.85321      .   S
    Cd2    Ts22      0.86131      .   S
    Cd2    Ts23      0.86127      .   S
    Cd3    Ts24      0.86093      .   S
    Cd3    Ts25      0.86094      .   S
    Cd3    Ts26      0.85288      .   S
    Cd3    Ts27      0.85288      .   S
    S4     Ts28      0.45037      .   S
    S5     Ts29      0.45039      .   S
    S6     Ts30      0.45040      .   S
    S7     Ts31      0.45040      .   S
    S8     Ts32      0.45039      .   S
    S9     Ts33      0.45039      .   S
    S10    Ts34      0.45019      .   S
    S11    Ts35      0.45037      .   S
