# CIF file generated by openbabel 2.4.90, see http://openbabel.sf.net
data_I
_chemical_name_common ''
_cell_length_a 12.563
_cell_length_b 12.561
_cell_length_c 25.828
_cell_angle_alpha 90
_cell_angle_beta 90
_cell_angle_gamma 89.992
_space_group_name_H-M_alt 'P 1'
_space_group_name_Hall 'P 1'
loop_
    _symmetry_equiv_pos_as_xyz
    x,y,z
loop_
    _atom_site_label
    _atom_site_type_symbol
    _atom_site_fract_x
    _atom_site_fract_y
    _atom_site_fract_z
    _atom_site_occupancy
    N0      N    0.75001   0.25001   0.66697   1.000
    N1      N    0.25000   0.75002   0.33303   1.000
    N2      N    0.75001   0.25001   0.16693   1.000
    N3      N    0.25000   0.75002   0.83305   1.000
    Zr4     Zr   0.25000   0.25001   0.41091   1.000
    O5      O    0.10753   0.24734   0.34217   1.000
    O6      O    0.39248   0.25268   0.34217   1.000
    O7      O    0.10781   0.24721   0.48530   1.000
    O8      O    0.39220   0.25280   0.48530   1.000
    Zr9     Zr   0.25000   0.25001   0.08908   1.000
    O10     O    0.25280   0.10782   0.01471   1.000
    O11     O    0.24720   0.39220   0.01471   1.000
    O12     O    0.24733   0.39248   0.15782   1.000
    O13     O    0.25267   0.10754   0.15781   1.000
    Zr14    Zr   0.75001   0.75002   0.58907   1.000
    O15     O    0.89248   0.75269   0.65782   1.000
    O16     O    0.60753   0.74735   0.65782   1.000
    O17     O    0.89220   0.75281   0.51470   1.000
    O18     O    0.60781   0.74723   0.51470   1.000
    Zr19    Zr   0.75001   0.75003   0.91093   1.000
    O20     O    0.75280   0.60783   0.98529   1.000
    O21     O    0.74721   0.89221   0.98529   1.000
    O22     O    0.74734   0.89249   0.84219   1.000
    O23     O    0.75268   0.60755   0.84219   1.000
loop_
    _geom_bond_atom_site_label_1
    _geom_bond_atom_site_label_2
    _geom_bond_distance
    _geom_bond_site_symmetry_2
    _ccdc_geom_bond_type
    Zr4    O5        2.52139      .   S
    N2     O5        6.37657  1_655   S
    Zr4    O6        2.52142      .   S
    N2     O6        6.37664      .   S
    Zr4    O7        2.62357      .   S
    N0     O7        6.49798  1_655   S
    Zr4    O8        2.62360      .   S
    N0     O8        6.49806      .   S
    Zr9    O10       2.62314      .   S
    N3     O10       6.49725  1_566   S
    Zr9    O11       2.62318      .   S
    N3     O11       6.49739  1_556   S
    Zr9    O12       2.52095      .   S
    N1     O12       6.37579      .   S
    Zr9    O13       2.52076      .   S
    N1     O13       6.37580  1_565   S
    Zr14   O15       2.52146      .   S
    N3     O15       6.37640  1_455   S
    Zr14   O16       2.52149      .   S
    N3     O16       6.37645      .   S
    Zr14   O17       2.62339      .   S
    N1     O17       6.49789  1_455   S
    Zr14   O18       2.62343      .   S
    N1     O18       6.49797      .   S
    Zr19   O20       2.62305      .   S
    N2     O20       6.49699  1_554   S
    Zr19   O21       2.62299      .   S
    N2     O21       6.49682  1_544   S
    Zr19   O22       2.52094      .   S
    N0     O22       6.37575  1_545   S
    Zr19   O23       2.52101      .   S
    N0     O23       6.37594      .   S
