# CIF file generated by openbabel 2.4.90, see http://openbabel.sf.net
data_I
_chemical_name_common ''
_cell_length_a 12.563
_cell_length_b 12.561
_cell_length_c 25.828
_cell_angle_alpha 90
_cell_angle_beta 90
_cell_angle_gamma 89.992
_space_group_name_H-M_alt 'P 1'
_space_group_name_Hall 'P 1'
loop_
    _symmetry_equiv_pos_as_xyz
    x,y,z
loop_
    _atom_site_label
    _atom_site_type_symbol
    _atom_site_fract_x
    _atom_site_fract_y
    _atom_site_fract_z
    _atom_site_occupancy
    N0      N    0.75001   0.25001   0.66697   1.000
    N1      N    0.25000   0.75002   0.33303   1.000
    N2      N    0.75001   0.25001   0.16693   1.000
    N3      N    0.79597   0.99083   0.57022   1.000
    N4      N    0.49087   0.20410   0.07018   1.000
    N5      N    0.25000   0.75002   0.83305   1.000
    N6      N    0.70405   0.50921   0.57022   1.000
    N7      N    0.29596   0.49082   0.42979   1.000
    N8      N    0.99088   0.70411   0.92983   1.000
    N9      N    0.00913   0.29594   0.07018   1.000
    N10     N    0.20404   0.00919   0.42979   1.000
    N11     N    0.50914   0.79596   0.92982   1.000
    Zr12    Zr   0.25000   0.25001   0.41091   1.000
    O13     O    0.23815   0.13472   0.41766   1.000
    O14     O    0.26185   0.36529   0.41766   1.000
    O15     O    0.10753   0.24734   0.34217   1.000
    O16     O    0.39248   0.25268   0.34217   1.000
    O17     O    0.10781   0.24721   0.48530   1.000
    O18     O    0.39220   0.25280   0.48530   1.000
    Zr19    Zr   0.25000   0.25001   0.08908   1.000
    O20     O    0.36531   0.23818   0.08233   1.000
    O21     O    0.13470   0.26185   0.08233   1.000
    O22     O    0.25280   0.10782   0.01471   1.000
    O23     O    0.24720   0.39220   0.01471   1.000
    O24     O    0.24733   0.39248   0.15782   1.000
    O25     O    0.25267   0.10754   0.15781   1.000
    Zr26    Zr   0.75001   0.75002   0.58907   1.000
    O27     O    0.76186   0.86530   0.58233   1.000
    O28     O    0.89248   0.75269   0.65782   1.000
    O29     O    0.60753   0.74735   0.65782   1.000
    O30     O    0.89220   0.75281   0.51470   1.000
    O31     O    0.60781   0.74723   0.51470   1.000
    O32     O    0.73816   0.63474   0.58234   1.000
    Zr33    Zr   0.75001   0.75003   0.91093   1.000
    O34     O    0.63470   0.76187   0.91768   1.000
    O35     O    0.75280   0.60783   0.98529   1.000
    O36     O    0.74721   0.89221   0.98529   1.000
    O37     O    0.74734   0.89249   0.84219   1.000
    O38     O    0.75268   0.60755   0.84219   1.000
    O39     O    0.86531   0.73819   0.91768   1.000
loop_
    _geom_bond_atom_site_label_1
    _geom_bond_atom_site_label_2
    _geom_bond_distance
    _geom_bond_site_symmetry_2
    _ccdc_geom_bond_type
    Zr12   O13       1.46609      .   S
    N10    O13       1.66379      .   S
    Zr12   O14       1.46609      .   S
    N7     O14       1.66378      .   S
    Zr12   O15       2.52139      .   S
    N2     O15       6.37657  1_655   S
    Zr12   O16       2.52142      .   S
    N2     O16       6.37664      .   S
    Zr12   O17       2.62357      .   S
    N0     O17       6.49798  1_655   S
    Zr12   O18       2.62360      .   S
    N0     O18       6.49806      .   S
    Zr19   O20       1.46658      .   S
    N4     O20       1.66432      .   S
    Zr19   O21       1.46658      .   S
    N9     O21       1.66430      .   S
    Zr19   O22       2.62314      .   S
    N5     O22       6.49725  1_566   S
    Zr19   O23       2.62318      .   S
    N5     O23       6.49739  1_556   S
    Zr19   O24       2.52095      .   S
    N1     O24       6.37579      .   S
    Zr19   O25       2.52076      .   S
    N1     O25       6.37580  1_565   S
    Zr26   O27       1.46608      .   S
    N3     O27       1.66369      .   S
    Zr26   O28       2.52146      .   S
    N5     O28       6.37640  1_455   S
    Zr26   O29       2.52149      .   S
    N5     O29       6.37645      .   S
    Zr26   O30       2.62339      .   S
    N1     O30       6.49789  1_455   S
    Zr26   O31       2.62343      .   S
    N1     O31       6.49797      .   S
    Zr26   O32       1.46606      .   S
    N6     O32       1.66372      .   S
    Zr33   O34       1.46656      .   S
    N11    O34       1.66428      .   S
    Zr33   O35       2.62305      .   S
    N2     O35       6.49699  1_554   S
    Zr33   O36       2.62299      .   S
    N2     O36       6.49682  1_544   S
    Zr33   O37       2.52094      .   S
    N0     O37       6.37575  1_545   S
    Zr33   O38       2.52101      .   S
    N0     O38       6.37594      .   S
    Zr33   O39       1.46658      .   S
    N8     O39       1.66432      .   S
