# CIF file generated by openbabel 2.4.90, see http://openbabel.sf.net
data_I
_chemical_name_common ''
_cell_length_a 19.791
_cell_length_b 19.792
_cell_length_c 21.892
_cell_angle_alpha 89.997
_cell_angle_beta 90.002
_cell_angle_gamma 119.953
_space_group_name_H-M_alt 'P 1'
_space_group_name_Hall 'P 1'
loop_
    _symmetry_equiv_pos_as_xyz
    x,y,z
loop_
    _atom_site_label
    _atom_site_type_symbol
    _atom_site_fract_x
    _atom_site_fract_y
    _atom_site_fract_z
    _atom_site_occupancy
    N0      N    0.22906   0.27105   0.74996   1.000
    N1      N    0.22906   0.77104   0.74997   1.000
    N2      N    0.72907   0.27105   0.74997   1.000
    N3      N    0.72906   0.77104   0.74996   1.000
    N4      N    0.04172   0.27104   0.41666   1.000
    N5      N    0.04172   0.77103   0.41665   1.000
    N6      N    0.54172   0.27103   0.41664   1.000
    N7      N    0.54172   0.77102   0.41665   1.000
    N8      N    0.22899   0.45834   0.08306   1.000
    N9      N    0.22899   0.95834   0.08302   1.000
    N10     N    0.72899   0.45834   0.08304   1.000
    N11     N    0.72899   0.95833   0.08302   1.000
    N12     N    0.27104   0.22906   0.25004   1.000
    N13     N    0.27103   0.72904   0.24953   1.000
    N14     N    0.77104   0.22905   0.25004   1.000
    N15     N    0.77104   0.72904   0.25004   1.000
    N16     N    0.45836   0.22897   0.91672   1.000
    N17     N    0.45835   0.72896   0.91675   1.000
    N18     N    0.95836   0.22896   0.91676   1.000
    N19     N    0.95835   0.72895   0.91676   1.000
    N20     N    0.27101   0.04174   0.58336   1.000
    N21     N    0.27101   0.54173   0.58336   1.000
    N22     N    0.77101   0.04173   0.58336   1.000
    N23     N    0.77101   0.54172   0.58336   1.000
    Zr24    Zr   0.04564   0.59116   0.58330   1.000
    O25     O    0.11187   0.57295   0.58045   1.000
    O26     O    0.96125   0.57292   0.58620   1.000
    O27     O    0.09917   0.64385   0.63572   1.000
    O28     O    0.04466   0.64383   0.53087   1.000
    Zr29    Zr   0.54564   0.09116   0.58330   1.000
    O30     O    0.61187   0.07296   0.58045   1.000
    O31     O    0.46125   0.07293   0.58620   1.000
    O32     O    0.54466   0.14384   0.53088   1.000
    O33     O    0.59917   0.14385   0.63572   1.000
    Zr34    Zr   0.54564   0.59115   0.58330   1.000
    O35     O    0.46125   0.57292   0.58620   1.000
    O36     O    0.61187   0.57295   0.58045   1.000
    O37     O    0.54465   0.64383   0.53088   1.000
    O38     O    0.59917   0.64384   0.63572   1.000
    Zr39    Zr   0.04564   0.09116   0.58330   1.000
    O40     O    0.11187   0.07296   0.58045   1.000
    O41     O    0.96125   0.07293   0.58620   1.000
    O42     O    0.04466   0.14384   0.53089   1.000
    O43     O    0.09917   0.14385   0.63572   1.000
    Zr44    Zr   0.45469   0.04546   0.75003   1.000
    O45     O    0.45560   0.09903   0.80247   1.000
    O46     O    0.40107   0.04455   0.69761   1.000
    O47     O    0.38837   0.96113   0.75289   1.000
    O48     O    0.53900   0.11177   0.74713   1.000
    Zr49    Zr   0.90892   0.95431   0.91670   1.000
    O50     O    0.85621   0.95531   0.96869   1.000
    O51     O    0.92716   0.03871   0.91385   1.000
    O52     O    0.92712   0.88808   0.91959   1.000
    O53     O    0.85624   0.90082   0.86426   1.000
    Zr54    Zr   0.90892   0.45432   0.91670   1.000
    O55     O    0.92716   0.53871   0.91385   1.000
    O56     O    0.85625   0.40083   0.86426   1.000
    O57     O    0.92712   0.38809   0.91959   1.000
    O58     O    0.85621   0.45532   0.96870   1.000
    Zr59    Zr   0.45469   0.54545   0.75003   1.000
    O60     O    0.45560   0.59902   0.80247   1.000
    O61     O    0.40107   0.54453   0.69761   1.000
    O62     O    0.38837   0.46113   0.75289   1.000
    O63     O    0.53900   0.61176   0.74713   1.000
    Zr64    Zr   0.95469   0.04546   0.75003   1.000
    O65     O    0.95560   0.09903   0.80248   1.000
    O66     O    0.90107   0.04454   0.69760   1.000
    O67     O    0.88837   0.96113   0.75289   1.000
    O68     O    0.03900   0.11177   0.74713   1.000
    Zr69    Zr   0.95469   0.54545   0.75003   1.000
    O70     O    0.95560   0.59902   0.80248   1.000
    O71     O    0.90107   0.54453   0.69760   1.000
    O72     O    0.03900   0.61176   0.74713   1.000
    O73     O    0.88837   0.46113   0.75289   1.000
    Zr74    Zr   0.09113   0.04564   0.41671   1.000
    O75     O    0.07290   0.96126   0.41381   1.000
    O76     O    0.14381   0.04467   0.46913   1.000
    O77     O    0.07294   0.11189   0.41957   1.000
    O78     O    0.14383   0.09917   0.36429   1.000
    Zr79    Zr   0.09113   0.54563   0.41671   1.000
    O80     O    0.07293   0.61188   0.41956   1.000
    O81     O    0.14381   0.54465   0.46913   1.000
    O82     O    0.14382   0.59916   0.36415   1.000
    O83     O    0.07290   0.46125   0.41382   1.000
    Zr84    Zr   0.59113   0.04564   0.41671   1.000
    O85     O    0.64383   0.09917   0.36429   1.000
    O86     O    0.64381   0.04466   0.46912   1.000
    O87     O    0.57293   0.11188   0.41955   1.000
    O88     O    0.57290   0.96125   0.41381   1.000
    Zr89    Zr   0.59113   0.54563   0.41671   1.000
    O90     O    0.64381   0.54465   0.46912   1.000
    O91     O    0.64382   0.59916   0.36429   1.000
    O92     O    0.57293   0.61187   0.41956   1.000
    O93     O    0.57290   0.46125   0.41381   1.000
    Zr94    Zr   0.45433   0.40890   0.08331   1.000
    O95     O    0.38811   0.42710   0.08036   1.000
    O96     O    0.40084   0.35623   0.13575   1.000
    O97     O    0.45534   0.35619   0.03092   1.000
    O98     O    0.53873   0.42714   0.08610   1.000
    Zr99    Zr   0.45433   0.90888   0.08331   1.000
    O100    O    0.40083   0.85621   0.13562   1.000
    O101    O    0.45533   0.85618   0.03092   1.000
    O102    O    0.38810   0.92709   0.08036   1.000
    O103    O    0.53873   0.92713   0.08611   1.000
    Zr104   Zr   0.95433   0.40889   0.08331   1.000
    O105    O    0.90084   0.35622   0.13575   1.000
    O106    O    0.88810   0.42710   0.08035   1.000
    O107    O    0.95533   0.35619   0.03093   1.000
    O108    O    0.03873   0.42713   0.08612   1.000
    Zr109   Zr   0.95433   0.90888   0.08331   1.000
    O110    O    0.03873   0.92713   0.08611   1.000
    O111    O    0.88810   0.92709   0.08036   1.000
    O112    O    0.90083   0.85621   0.13575   1.000
    O113    O    0.95533   0.85618   0.03093   1.000
    Zr114   Zr   0.04545   0.45468   0.24990   1.000
    O115    O    0.96113   0.38836   0.24707   1.000
    O116    O    0.11175   0.53899   0.25270   1.000
    O117    O    0.04453   0.40107   0.30236   1.000
    O118    O    0.09903   0.45559   0.19744   1.000
    Zr119   Zr   0.04545   0.95467   0.24990   1.000
    O120    O    0.96113   0.88835   0.24707   1.000
    O121    O    0.04453   0.90107   0.30235   1.000
    O122    O    0.09903   0.95559   0.19743   1.000
    O123    O    0.11175   0.03899   0.25283   1.000
    Zr124   Zr   0.54545   0.45468   0.24997   1.000
    O125    O    0.59903   0.45559   0.19748   1.000
    O126    O    0.54453   0.40107   0.30240   1.000
    O127    O    0.46113   0.38836   0.24712   1.000
    O128    O    0.61176   0.53899   0.25287   1.000
    Zr129   Zr   0.54545   0.95467   0.24997   1.000
    O130    O    0.46112   0.88835   0.24611   1.000
    O131    O    0.61175   0.03899   0.25287   1.000
    O132    O    0.54453   0.90106   0.30240   1.000
    O133    O    0.59903   0.95558   0.19747   1.000
    Zr134   Zr   0.40892   0.45432   0.91670   1.000
    O135    O    0.42716   0.53871   0.91384   1.000
    O136    O    0.42712   0.38809   0.91958   1.000
    O137    O    0.35621   0.45532   0.96870   1.000
    O138    O    0.35625   0.40083   0.86426   1.000
    Zr139   Zr   0.40892   0.95431   0.91670   1.000
    O140    O    0.35621   0.95532   0.96869   1.000
    O141    O    0.42716   0.03871   0.91383   1.000
    O142    O    0.42712   0.88808   0.91959   1.000
    O143    O    0.35624   0.90083   0.86426   1.000
loop_
    _geom_bond_atom_site_label_1
    _geom_bond_atom_site_label_2
    _geom_bond_distance
    _geom_bond_site_symmetry_2
    _ccdc_geom_bond_type
    Zr24   O25       1.52436      .   S
    N21    O25       3.49989      .   S
    Zr24   O26       1.52371  1_455   S
    N23    O26       3.49842      .   S
    Zr24   O27       1.55688      .   S
    N1     O27       3.56923      .   S
    Zr24   O28       1.55717      .   S
    N5     O28       3.56927      .   S
    Zr29   O30       1.52437      .   S
    N22    O30       3.49991      .   S
    Zr29   O31       1.52370      .   S
    N20    O31       3.49839      .   S
    Zr29   O32       1.55700      .   S
    N6     O32       3.56941      .   S
    Zr29   O33       1.55687      .   S
    N2     O33       3.56920      .   S
    Zr34   O35       1.52370      .   S
    N21    O35       3.49841      .   S
    Zr34   O36       1.52436      .   S
    N23    O36       3.49990      .   S
    Zr34   O37       1.55699      .   S
    N7     O37       3.56938      .   S
    Zr34   O38       1.55684      .   S
    N3     O38       3.56911      .   S
    Zr39   O40       1.52436      .   S
    N20    O40       3.49989      .   S
    Zr39   O41       1.52371  1_455   S
    N22    O41       3.49843      .   S
    Zr39   O42       1.55696      .   S
    N4     O42       3.56934      .   S
    Zr39   O43       1.55684      .   S
    N0     O43       3.56911      .   S
    Zr44   O45       1.55662      .   S
    N16    O45       3.56838      .   S
    Zr44   O46       1.55699      .   S
    N20    O46       3.56933      .   S
    Zr44   O47       1.52473  1_545   S
    N1     O47       3.50059      .   S
    Zr44   O48       1.52444      .   S
    N2     O48       3.50000      .   S
    Zr49   O50       1.55075      .   S
    N11    O50       3.57194  1_554   S
    Zr49   O51       1.52397  1_565   S
    N18    O51       3.49898      .   S
    Zr49   O52       1.52434      .   S
    N19    O52       3.49979      .   S
    Zr49   O53       1.55681      .   S
    N3     O53       3.56907      .   S
    Zr54   O55       1.52383      .   S
    N19    O55       3.49874      .   S
    Zr54   O56       1.55678      .   S
    N2     O56       3.56898      .   S
    Zr54   O57       1.52434      .   S
    N18    O57       3.49979      .   S
    Zr54   O58       1.55082      .   S
    N10    O58       3.57216  1_554   S
    Zr59   O60       1.55675      .   S
    N17    O60       3.56875      .   S
    Zr59   O61       1.55699      .   S
    N21    O61       3.56932      .   S
    Zr59   O62       1.52461      .   S
    N0     O62       3.50041      .   S
    Zr59   O63       1.52444      .   S
    N3     O63       3.50000      .   S
    Zr64   O65       1.55680      .   S
    N18    O65       3.56890      .   S
    Zr64   O66       1.55702      .   S
    N22    O66       3.56940      .   S
    Zr64   O67       1.52473  1_545   S
    N3     O67       3.50058      .   S
    Zr64   O68       1.52446  1_655   S
    N0     O68       3.50002      .   S
    Zr69   O70       1.55678      .   S
    N19    O70       3.56884      .   S
    Zr69   O71       1.55702      .   S
    N23    O71       3.56941      .   S
    Zr69   O72       1.52445  1_655   S
    N1     O72       3.50001      .   S
    Zr69   O73       1.52462      .   S
    N2     O73       3.50040      .   S
    Zr74   O75       1.52381  1_545   S
    N5     O75       3.49857      .   S
    Zr74   O76       1.55701      .   S
    N20    O76       3.56940      .   S
    Zr74   O77       1.52446      .   S
    N4     O77       3.50008      .   S
    Zr74   O78       1.55686      .   S
    N12    O78       3.56920      .   S
    Zr79   O80       1.52446      .   S
    N5     O80       3.50009      .   S
    Zr79   O81       1.55701      .   S
    N21    O81       3.56940      .   S
    Zr79   O82       1.55906      .   S
    N13    O82       3.57494      .   S
    Zr79   O83       1.52366      .   S
    N4     O83       3.49834      .   S
    Zr84   O85       1.55686      .   S
    N14    O85       3.56919      .   S
    Zr84   O86       1.55697      .   S
    N22    O86       3.56932      .   S
    Zr84   O87       1.52446      .   S
    N6     O87       3.50009      .   S
    Zr84   O88       1.52380  1_545   S
    N7     O88       3.49857      .   S
    Zr89   O90       1.55697      .   S
    N23    O90       3.56931      .   S
    Zr89   O91       1.55688      .   S
    N15    O91       3.56925      .   S
    Zr89   O92       1.52447      .   S
    N7     O92       3.50010      .   S
    Zr89   O93       1.52366      .   S
    N6     O93       3.49832      .   S
    Zr94   O95       1.52431      .   S
    N8     O95       3.49959      .   S
    Zr94   O96       1.55676      .   S
    N12    O96       3.56892      .   S
    Zr94   O97       1.55724      .   S
    N16    O97       3.57004  1_556   S
    Zr94   O98       1.52379      .   S
    N10    O98       3.49882      .   S
    Zr99   O100      1.55471      .   S
    N13    O100      3.56306      .   S
    Zr99   O101      1.55711      .   S
    N17    O101      3.56968  1_556   S
    Zr99   O102      1.52431      .   S
    N9     O102      3.49958      .   S
    Zr99   O103      1.52379      .   S
    N11    O103      3.49882      .   S
    Zr104  O105      1.55677      .   S
    N14    O105      3.56895      .   S
    Zr104  O106      1.52432      .   S
    N10    O106      3.49960      .   S
    Zr104  O107      1.55706      .   S
    N18    O107      3.56952  1_556   S
    Zr104  O108      1.52380  1_655   S
    N8     O108      3.49882      .   S
    Zr109  O110      1.52380  1_655   S
    N9     O110      3.49883      .   S
    Zr109  O111      1.52432      .   S
    N11    O111      3.49959      .   S
    Zr109  O112      1.55675      .   S
    N15    O112      3.56889      .   S
    Zr109  O113      1.55708      .   S
    N19    O113      3.56958  1_556   S
    Zr114  O115      1.52464  1_455   S
    N14    O115      3.50054      .   S
    Zr114  O116      1.52432      .   S
    N13    O116      3.50005      .   S
    Zr114  O117      1.55736      .   S
    N4     O117      3.56992      .   S
    Zr114  O118      1.55720      .   S
    N8     O118      3.57052      .   S
    Zr119  O120      1.52464  1_455   S
    N15    O120      3.50054      .   S
    Zr119  O121      1.55733      .   S
    N5     O121      3.56983      .   S
    Zr119  O122      1.55734      .   S
    N9     O122      3.57093      .   S
    Zr119  O123      1.52455  1_565   S
    N12    O123      3.50007      .   S
    Zr124  O125      1.55768      .   S
    N10    O125      3.57138      .   S
    Zr124  O126      1.55692      .   S
    N6     O126      3.56916      .   S
    Zr124  O127      1.52465      .   S
    N12    O127      3.50050      .   S
    Zr124  O128      1.52441      .   S
    N15    O128      3.49990      .   S
    Zr129  O130      1.52570      .   S
    N13    O130      3.50071      .   S
    Zr129  O131      1.52452  1_565   S
    N14    O131      3.50009      .   S
    Zr129  O132      1.55693      .   S
    N7     O132      3.56919      .   S
    Zr129  O133      1.55776      .   S
    N11    O133      3.57160      .   S
    Zr134  O135      1.52384      .   S
    N17    O135      3.49874      .   S
    Zr134  O136      1.52434      .   S
    N16    O136      3.49981      .   S
    Zr134  O137      1.55088      .   S
    N8     O137      3.57234  1_554   S
    Zr134  O138      1.55681      .   S
    N0     O138      3.56907      .   S
    Zr139  O140      1.55074      .   S
    N9     O140      3.57193  1_554   S
    Zr139  O141      1.52398  1_565   S
    N16    O141      3.49896      .   S
    Zr139  O142      1.52434      .   S
    N17    O142      3.49980      .   S
    Zr139  O143      1.55677      .   S
    N1     O143      3.56895      .   S
