# CIF file generated by openbabel 2.4.90, see http://openbabel.sf.net
data_I
_chemical_name_common ''
_cell_length_a 6.378
_cell_length_b 12.29
_cell_length_c 15.5126
_cell_angle_alpha 89.9841
_cell_angle_beta 78.4341
_cell_angle_gamma 89.976
_space_group_name_H-M_alt 'P 1'
_space_group_name_Hall 'P 1'
loop_
    _symmetry_equiv_pos_as_xyz
    x,y,z
loop_
    _atom_site_label
    _atom_site_type_symbol
    _atom_site_fract_x
    _atom_site_fract_y
    _atom_site_fract_z
    _atom_site_occupancy
    H0      H    0.25045   0.29805   0.21264   1.000
    H1      H    0.49003   0.21076   0.23893   1.000
    H2      H    0.98537   0.39454   0.32606   1.000
    H3      H    0.74973   0.79842   0.28743   1.000
    H4      H    0.50985   0.71100   0.26174   1.000
    H5      H    0.01499   0.89461   0.17392   1.000
    H6      H    0.74969   0.70168   0.78780   1.000
    H7      H    0.50989   0.78902   0.76175   1.000
    H8      H    0.01469   0.60533   0.67424   1.000
    H9      H    0.25028   0.20192   0.71277   1.000
    H10     H    0.49015   0.28929   0.73850   1.000
    H11     H    0.98509   0.10571   0.82629   1.000
    C12     C    0.71540   0.31066   0.29180   1.000
    C13     C    0.01022   0.20062   0.16875   1.000
    C14     C    0.08137   0.27938   0.22088   1.000
    C15     C    0.65699   0.23210   0.23561   1.000
    C16     C    0.93284   0.33414   0.28372   1.000
    C17     C    0.28469   0.81056   0.20832   1.000
    C18     C    0.98974   0.70058   0.33125   1.000
    C19     C    0.91874   0.77948   0.27913   1.000
    C20     C    0.34292   0.73226   0.26479   1.000
    C21     C    0.06738   0.83408   0.21624   1.000
    C22     C    0.28473   0.68966   0.70826   1.000
    C23     C    0.98984   0.79964   0.83125   1.000
    C24     C    0.91871   0.72063   0.77933   1.000
    C25     C    0.34296   0.76783   0.76478   1.000
    C26     C    0.06721   0.66597   0.71639   1.000
    C27     C    0.71532   0.18969   0.79188   1.000
    C28     C    0.01024   0.29967   0.66890   1.000
    C29     C    0.08126   0.22084   0.72107   1.000
    C30     C    0.65709   0.26800   0.73541   1.000
    C31     C    0.93265   0.16622   0.78397   1.000
    N32     N    0.79958   0.17769   0.17534   1.000
    N33     N    0.20011   0.67793   0.32502   1.000
    N34     N    0.20013   0.82215   0.82503   1.000
    N35     N    0.79985   0.32232   0.67515   1.000
loop_
    _geom_bond_atom_site_label_1
    _geom_bond_atom_site_label_2
    _geom_bond_distance
    _geom_bond_site_symmetry_2
    _ccdc_geom_bond_type
    C13    N32       1.35644  1_455   S
    C13    C14       1.39453      .   S
    H5     C21       1.08793      .   S
    N32    C15       1.34439      .   S
    C17    C21       1.39679      .   S
    C17    C20       1.40043      .   S
    H0     C14       1.08484      .   S
    C21    C19       1.38930  1_455   S
    C14    C16       1.38924  1_455   S
    C15    H1        1.08799      .   S
    C15    C12       1.40056      .   S
    H4     C20       1.08798      .   S
    C20    N33       1.34437      .   S
    C19    H3        1.08486      .   S
    C19    C18       1.39458      .   S
    C16    C12       1.39745      .   S
    C16    H2        1.08792      .   S
    N33    C18       1.35452  1_455   S
    C28    N35       1.35460  1_455   S
    C28    C29       1.39455      .   S
    H8     C26       1.08795      .   S
    N35    C30       1.34436      .   S
    C22    C26       1.39842      .   S
    C22    C25       1.40042      .   S
    H9     C29       1.08486      .   S
    C26    C24       1.38941  1_455   S
    C29    C31       1.38939  1_455   S
    C30    H10       1.08799      .   S
    C30    C27       1.40052      .   S
    H7     C25       1.08798      .   S
    C25    N34       1.34443      .   S
    C24    H6        1.08489      .   S
    C24    C23       1.39455      .   S
    C31    C27       1.39676      .   S
    C31    H11       1.08795      .   S
    N34    C23       1.35394  1_455   S
