# CIF file generated by openbabel 2.4.90, see http://openbabel.sf.net
data_I
_chemical_name_common ''
_cell_length_a 6.378
_cell_length_b 12.29
_cell_length_c 15.5126
_cell_angle_alpha 89.9841
_cell_angle_beta 78.4341
_cell_angle_gamma 89.976
_space_group_name_H-M_alt 'P 1'
_space_group_name_Hall 'P 1'
loop_
    _symmetry_equiv_pos_as_xyz
    x,y,z
loop_
    _atom_site_label
    _atom_site_type_symbol
    _atom_site_fract_x
    _atom_site_fract_y
    _atom_site_fract_z
    _atom_site_occupancy
    C0      C    0.55273   0.37367   0.35598   1.000
    C1      C    0.16734   0.13349   0.10416   1.000
    C2      C    0.44731   0.87338   0.14401   1.000
    C3      C    0.83263   0.63354   0.39590   1.000
    C4      C    0.44725   0.62675   0.64396   1.000
    C5      C    0.83291   0.86671   0.89595   1.000
    C6      C    0.55266   0.12673   0.85608   1.000
    C7      C    0.16727   0.36662   0.60413   1.000
