# CIF file generated by openbabel 2.4.90, see http://openbabel.sf.net
data_I
_chemical_name_common ''
_cell_length_a 6.378
_cell_length_b 12.29
_cell_length_c 15.5126
_cell_angle_alpha 89.9841
_cell_angle_beta 78.4341
_cell_angle_gamma 89.976
_space_group_name_H-M_alt 'P 1'
_space_group_name_Hall 'P 1'
loop_
    _symmetry_equiv_pos_as_xyz
    x,y,z
loop_
    _atom_site_label
    _atom_site_type_symbol
    _atom_site_fract_x
    _atom_site_fract_y
    _atom_site_fract_z
    _atom_site_occupancy
    Zr0     Zr   0.70270   0.04745   0.05880   1.000
    Zr1     Zr   0.29696   0.54761   0.44134   1.000
    Zr2     Zr   0.29689   0.95246   0.94134   1.000
    Zr3     Zr   0.70288   0.45253   0.55868   1.000
    N4      N    0.88025   0.27088   0.23930   1.000
    N5      N    0.11976   0.72910   0.76098   1.000
    N6      N    0.88021   0.22929   0.73933   1.000
    N7      N    0.11979   0.77099   0.26087   1.000
    C8      C    0.48833   0.60817   0.62700   1.000
    O9      O    0.36560   0.65091   0.67277   1.000
    O10     O    0.41825   0.59132   0.56643   1.000
    C11     C    0.20529   0.38466   0.58778   1.000
    O12     O    0.09489   0.33294   0.63785   1.000
    O13     O    0.36842   0.39672   0.58640   1.000
    O14     O    0.19898   0.43481   0.54118   1.000
    O15     O    0.05046   0.41104   0.57052   1.000
    C16     C    0.51150   0.39227   0.37291   1.000
    O17     O    0.63433   0.34940   0.32726   1.000
    O18     O    0.58155   0.40917   0.43350   1.000
    C19     C    0.79454   0.61547   0.41221   1.000
    O20     O    0.63145   0.60344   0.41359   1.000
    O21     O    0.90502   0.66725   0.36222   1.000
    O22     O    0.94932   0.58905   0.42948   1.000
    O23     O    0.80080   0.56528   0.45881   1.000
    C24     C    0.20543   0.11543   0.08785   1.000
    O25     O    0.36844   0.10334   0.08651   1.000
    O26     O    0.09497   0.16720   0.13787   1.000
    O27     O    0.05058   0.08901   0.07060   1.000
    O28     O    0.19913   0.06526   0.04123   1.000
    C29     C    0.48844   0.89193   0.12705   1.000
    O30     O    0.41830   0.90884   0.06648   1.000
    O31     O    0.36567   0.84921   0.17278   1.000
    C32     C    0.51149   0.10813   0.87302   1.000
    O33     O    0.63430   0.15094   0.82734   1.000
    O34     O    0.58140   0.09125   0.93365   1.000
    C35     C    0.79489   0.88479   0.91228   1.000
    O36     O    0.80107   0.93486   0.95888   1.000
    O37     O    0.94962   0.91112   0.92952   1.000
    O38     O    0.90523   0.83296   0.86229   1.000
    O39     O    0.63166   0.89681   0.91366   1.000
    O40     O    0.45271   0.43343   0.39214   1.000
    O41     O    0.54715   0.93313   0.10786   1.000
    O42     O    0.45269   0.06689   0.89222   1.000
    O43     O    0.54710   0.56694   0.60780   1.000
loop_
    _geom_bond_atom_site_label_1
    _geom_bond_atom_site_label_2
    _geom_bond_distance
    _geom_bond_site_symmetry_2
    _ccdc_geom_bond_type
    C8     O9        1.08155      .   S
    N5     O9        2.09603      .   S
    C8     O10       1.13759      .   S
    Zr1    O10       2.29247      .   S
    C11    O12       1.13314      .   S
    N6     O12       2.26084  1_655   S
    C11    O13       1.04699      .   S
    Zr3    O13       2.19972      .   S
    C11    O14       0.95670      .   S
    Zr1    O14       2.07910      .   S
    C11    O15       1.12145      .   S
    Zr3    O15       2.31743  1_655   S
    C16    O17       1.08184      .   S
    N4     O17       2.09622      .   S
    C16    O18       1.13789      .   S
    Zr3    O18       2.29283      .   S
    C19    O20       1.04669      .   S
    Zr1    O20       2.20005      .   S
    C19    O21       1.13308      .   S
    N7     O21       2.26064  1_455   S
    C19    O22       1.12134      .   S
    Zr1    O22       2.31778  1_455   S
    C19    O23       0.95705      .   S
    Zr3    O23       2.07900      .   S
    C24    O25       1.04622      .   S
    Zr0    O25       2.19842      .   S
    C24    O26       1.13306      .   S
    N4     O26       2.26075  1_655   S
    C24    O27       1.12198      .   S
    Zr0    O27       2.31972  1_655   S
    C24    O28       0.95743      .   S
    Zr2    O28       2.07958  1_566   S
    C29    O30       1.13780      .   S
    Zr2    O30       2.29277  1_556   S
    C29    O31       1.08148      .   S
    N7     O31       2.09565      .   S
    C32    O33       1.08168      .   S
    N6     O33       2.09599      .   S
    C32    O34       1.13780      .   S
    Zr0    O34       2.29312  1_554   S
    C35    O36       0.95638      .   S
    Zr0    O36       2.07873  1_544   S
    C35    O37       1.12081      .   S
    Zr2    O37       2.31548  1_455   S
    C35    O38       1.13289      .   S
    N5     O38       2.26022  1_455   S
    C35    O39       1.04745      .   S
    Zr2    O39       2.20057      .   S
    Zr1    O40       1.79830      .   S
    C16    O40       0.66369      .   S
    Zr0    O41       1.79876  1_545   S
    C29    O41       0.66372      .   S
    Zr2    O42       1.80080  1_565   S
    C32    O42       0.66447      .   S
    Zr3    O43       1.80023      .   S
    C8     O43       0.66422      .   S
