# CIF file generated by openbabel 2.4.90, see http://openbabel.sf.net
data_I
_chemical_name_common ''
_cell_length_a 6.378
_cell_length_b 12.29
_cell_length_c 15.5126
_cell_angle_alpha 89.9841
_cell_angle_beta 78.4341
_cell_angle_gamma 89.976
_space_group_name_H-M_alt 'P 1'
_space_group_name_Hall 'P 1'
loop_
    _symmetry_equiv_pos_as_xyz
    x,y,z
loop_
    _atom_site_label
    _atom_site_type_symbol
    _atom_site_fract_x
    _atom_site_fract_y
    _atom_site_fract_z
    _atom_site_occupancy
    Zr0     Zr   0.70270   0.04745   0.05880   1.000
    Zr1     Zr   0.29696   0.54761   0.44134   1.000
    Zr2     Zr   0.29689   0.95246   0.94134   1.000
    Zr3     Zr   0.70288   0.45253   0.55868   1.000
    N4      N    0.88025   0.27088   0.23930   1.000
    N5      N    0.11976   0.72910   0.76098   1.000
    N6      N    0.88021   0.22929   0.73933   1.000
    N7      N    0.11979   0.77099   0.26087   1.000
    C8      C    0.48833   0.60817   0.62700   1.000
    O9      O    0.57447   0.56633   0.61984   1.000
    O10     O    0.36560   0.65091   0.67277   1.000
    O11     O    0.41825   0.59132   0.56643   1.000
    O12     O    0.51973   0.56755   0.59577   1.000
    C13     C    0.20529   0.38466   0.58778   1.000
    O14     O    0.09489   0.33294   0.63785   1.000
    O15     O    0.36842   0.39672   0.58640   1.000
    O16     O    0.19898   0.43481   0.54118   1.000
    O17     O    0.05046   0.41104   0.57052   1.000
    C18     C    0.51150   0.39227   0.37291   1.000
    O19     O    0.42535   0.43392   0.38010   1.000
    O20     O    0.63433   0.34940   0.32726   1.000
    O21     O    0.58155   0.40917   0.43350   1.000
    O22     O    0.48007   0.43294   0.40417   1.000
    C23     C    0.79454   0.61547   0.41221   1.000
    O24     O    0.63145   0.60344   0.41359   1.000
    O25     O    0.90502   0.66725   0.36222   1.000
    O26     O    0.94932   0.58905   0.42948   1.000
    O27     O    0.80080   0.56528   0.45881   1.000
    C28     C    0.20543   0.11543   0.08785   1.000
    O29     O    0.36844   0.10334   0.08651   1.000
    O30     O    0.09497   0.16720   0.13787   1.000
    O31     O    0.05058   0.08901   0.07060   1.000
    O32     O    0.19913   0.06526   0.04123   1.000
    C33     C    0.48844   0.89193   0.12705   1.000
    O34     O    0.41830   0.90884   0.06648   1.000
    O35     O    0.51975   0.93259   0.09584   1.000
    O36     O    0.57454   0.93368   0.11989   1.000
    O37     O    0.36567   0.84921   0.17278   1.000
    C38     C    0.51149   0.10813   0.87302   1.000
    O39     O    0.63430   0.15094   0.82734   1.000
    O40     O    0.42544   0.06628   0.88014   1.000
    O41     O    0.58140   0.09125   0.93365   1.000
    O42     O    0.47994   0.06750   0.90429   1.000
    C43     C    0.79489   0.88479   0.91228   1.000
    O44     O    0.80107   0.93486   0.95888   1.000
    O45     O    0.94962   0.91112   0.92952   1.000
    O46     O    0.90523   0.83296   0.86229   1.000
    O47     O    0.63166   0.89681   0.91366   1.000
loop_
    _geom_bond_atom_site_label_1
    _geom_bond_atom_site_label_2
    _geom_bond_distance
    _geom_bond_site_symmetry_2
    _ccdc_geom_bond_type
    C8     O9        0.74427      .   S
    Zr3    O9        1.79310      .   S
    C8     O10       1.08155      .   S
    N5     O10       2.09603      .   S
    C8     O11       1.13759      .   S
    Zr1    O11       2.29247      .   S
    C8     O12       0.69665      .   S
    Zr3    O12       1.85022      .   S
    C13    O14       1.13314      .   S
    N6     O14       2.26084  1_655   S
    C13    O15       1.04699      .   S
    Zr3    O15       2.19972      .   S
    C13    O16       0.95670      .   S
    Zr1    O16       2.07910      .   S
    C13    O17       1.12145      .   S
    Zr3    O17       2.31743  1_655   S
    C18    O19       0.74267      .   S
    Zr1    O19       1.79250      .   S
    C18    O20       1.08184      .   S
    N4     O20       2.09622      .   S
    C18    O21       1.13789      .   S
    Zr3    O21       2.29283      .   S
    C18    O22       0.69727      .   S
    Zr1    O22       1.84702      .   S
    C23    O24       1.04669      .   S
    Zr1    O24       2.20005      .   S
    C23    O25       1.13308      .   S
    N7     O25       2.26064  1_455   S
    C23    O26       1.12134      .   S
    Zr1    O26       2.31778  1_455   S
    C23    O27       0.95705      .   S
    Zr3    O27       2.07900      .   S
    C28    O29       1.04622      .   S
    Zr0    O29       2.19842      .   S
    C28    O30       1.13306      .   S
    N4     O30       2.26075  1_655   S
    C28    O31       1.12198      .   S
    Zr0    O31       2.31972  1_655   S
    C28    O32       0.95743      .   S
    Zr2    O32       2.07958  1_566   S
    C33    O34       1.13780      .   S
    Zr2    O34       2.29277  1_556   S
    C33    O35       0.69649      .   S
    Zr0    O35       1.84844  1_545   S
    C33    O36       0.74354      .   S
    Zr0    O36       1.79199  1_545   S
    C33    O37       1.08148      .   S
    N7     O37       2.09565      .   S
    C38    O39       1.08168      .   S
    N6     O39       2.09599      .   S
    C38    O40       0.74420      .   S
    Zr2    O40       1.79399  1_565   S
    C38    O41       1.13780      .   S
    Zr0    O41       2.29312  1_554   S
    C38    O42       0.69714      .   S
    Zr2    O42       1.85044  1_565   S
    C43    O44       0.95638      .   S
    Zr0    O44       2.07873  1_544   S
    C43    O45       1.12081      .   S
    Zr2    O45       2.31548  1_455   S
    C43    O46       1.13289      .   S
    N5     O46       2.26022  1_455   S
    C43    O47       1.04745      .   S
    Zr2    O47       2.20057      .   S
