# CIF file generated by openbabel 2.4.90, see http://openbabel.sf.net
data_I
_chemical_name_common ''
_cell_length_a 6.378
_cell_length_b 12.29
_cell_length_c 15.5126
_cell_angle_alpha 89.9841
_cell_angle_beta 78.4341
_cell_angle_gamma 89.976
_space_group_name_H-M_alt 'P 1'
_space_group_name_Hall 'P 1'
loop_
    _symmetry_equiv_pos_as_xyz
    x,y,z
loop_
    _atom_site_label
    _atom_site_type_symbol
    _atom_site_fract_x
    _atom_site_fract_y
    _atom_site_fract_z
    _atom_site_occupancy
    Zr0     Zr   0.70270   0.04745   0.05880   1.000
    Zr1     Zr   0.29696   0.54761   0.44134   1.000
    Zr2     Zr   0.29689   0.95246   0.94134   1.000
    Zr3     Zr   0.70288   0.45253   0.55868   1.000
    Zr4     Zr   0.55273   0.37367   0.35598   1.000
    Zr5     Zr   0.16734   0.13349   0.10416   1.000
    Zr6     Zr   0.44731   0.87338   0.14401   1.000
    Zr7     Zr   0.83263   0.63354   0.39590   1.000
    Zr8     Zr   0.44725   0.62675   0.64396   1.000
    Zr9     Zr   0.83291   0.86671   0.89595   1.000
    Zr10    Zr   0.55266   0.12673   0.85608   1.000
    Zr11    Zr   0.16727   0.36662   0.60413   1.000
    Zr12    Zr   0.08876   0.07773   0.04788   1.000
    Zr13    Zr   0.36020   0.13505   0.11152   1.000
    Zr14    Zr   0.38145   0.40353   0.33325   1.000
    Zr15    Zr   0.60032   0.39961   0.42951   1.000
    Zr16    Zr   0.91125   0.57766   0.45214   1.000
    Zr17    Zr   0.63975   0.63522   0.38860   1.000
    Zr18    Zr   0.61859   0.90338   0.16666   1.000
    Zr19    Zr   0.39942   0.89904   0.07047   1.000
    Zr20    Zr   0.91180   0.92243   0.95218   1.000
    Zr21    Zr   0.63997   0.86521   0.88872   1.000
    Zr22    Zr   0.61834   0.59645   0.66666   1.000
    Zr23    Zr   0.39939   0.60132   0.57038   1.000
    Zr24    Zr   0.08838   0.42231   0.54784   1.000
    Zr25    Zr   0.36023   0.36505   0.61136   1.000
    Zr26    Zr   0.38190   0.09640   0.83319   1.000
    Zr27    Zr   0.59990   0.10127   0.92978   1.000
    O28     O    0.12805   0.10561   0.07602   1.000
    O29     O    0.66065   0.97542   0.11273   1.000
    O30     O    0.65130   0.07436   0.99429   1.000
    O31     O    0.42336   0.88621   0.10724   1.000
    O32     O    0.34815   0.92575   0.00591   1.000
    O33     O    0.26377   0.13427   0.10784   1.000
    O34     O    0.53295   0.88838   0.15534   1.000
    O35     O    0.46709   0.38860   0.34462   1.000
    O36     O    0.33921   0.47557   0.38730   1.000
    O37     O    0.57652   0.38664   0.39275   1.000
    O38     O    0.73619   0.63438   0.39225   1.000
    O39     O    0.87194   0.60560   0.42402   1.000
    O40     O    0.65160   0.42607   0.49410   1.000
    O41     O    0.34818   0.57446   0.50586   1.000
    O42     O    0.12782   0.39446   0.57599   1.000
    O43     O    0.66061   0.52449   0.61267   1.000
    O44     O    0.42332   0.61403   0.60717   1.000
    O45     O    0.26375   0.36584   0.60774   1.000
    O46     O    0.53279   0.61160   0.65531   1.000
    O47     O    0.46728   0.11156   0.84464   1.000
    O48     O    0.33940   0.02443   0.88727   1.000
    O49     O    0.57628   0.11400   0.89293   1.000
    O50     O    0.73644   0.86596   0.89233   1.000
    O51     O    0.87236   0.89457   0.92406   1.000
    O52     O    0.89573   0.06259   0.05334   1.000
    O53     O    0.19282   0.01510   0.99461   1.000
    O54     O    0.53145   0.09125   0.08516   1.000
    O55     O    0.44864   0.47361   0.43543   1.000
    O56     O    0.10410   0.56263   0.44674   1.000
    O57     O    0.80706   0.51509   0.50541   1.000
    O58     O    0.46835   0.59141   0.41497   1.000
    O59     O    0.55106   0.97325   0.06463   1.000
    O60     O    0.80725   0.98494   0.00549   1.000
    O61     O    0.10434   0.93745   0.94676   1.000
    O62     O    0.46843   0.90884   0.91503   1.000
    O63     O    0.55113   0.52692   0.56453   1.000
    O64     O    0.19267   0.48496   0.49459   1.000
    O65     O    0.89563   0.43742   0.55326   1.000
    O66     O    0.53155   0.40879   0.58502   1.000
    O67     O    0.44840   0.02687   0.93556   1.000
    N68     N    0.88025   0.27088   0.23930   1.000
    O69     O    0.98452   0.21897   0.18788   1.000
    O70     O    0.75716   0.30652   0.28160   1.000
    N71     N    0.11976   0.72910   0.76098   1.000
    O72     O    0.01557   0.78114   0.81229   1.000
    O73     O    0.24288   0.69365   0.71855   1.000
    N74     N    0.88021   0.22929   0.73933   1.000
    O75     O    0.98448   0.28122   0.68792   1.000
    O76     O    0.75710   0.19375   0.78166   1.000
    N77     N    0.11979   0.77099   0.26087   1.000
    O78     O    0.01549   0.71903   0.31222   1.000
    O79     O    0.24290   0.80648   0.21852   1.000
loop_
    _geom_bond_atom_site_label_1
    _geom_bond_atom_site_label_2
    _geom_bond_distance
    _geom_bond_site_symmetry_2
    _ccdc_geom_bond_type
    Zr12   O28       0.64404      .   S
    Zr5    O28       0.64404      .   S
    Zr0    O29       1.21059  1_545   S
    Zr18   O29       1.21059      .   S
    Zr0    O30       1.16170  1_554   S
    Zr27   O30       1.16170      .   S
    Zr19   O31       0.63911      .   S
    Zr6    O31       0.63911      .   S
    Zr19   O32       1.16136      .   S
    Zr2    O32       1.16136  1_556   S
    Zr5    O33       0.62903      .   S
    Zr13   O33       0.62903      .   S
    Zr6    O34       0.63386      .   S
    Zr18   O34       0.63386      .   S
    Zr14   O35       0.63373      .   S
    Zr4    O35       0.63373      .   S
    Zr14   O36       1.21201      .   S
    Zr1    O36       1.21201      .   S
    Zr4    O37       0.63911      .   S
    Zr15   O37       0.63911      .   S
    Zr17   O38       0.62897      .   S
    Zr7    O38       0.62897      .   S
    Zr7    O39       0.64404      .   S
    Zr16   O39       0.64404      .   S
    Zr15   O40       1.16113      .   S
    Zr3    O40       1.16113      .   S
    Zr1    O41       1.16137      .   S
    Zr23   O41       1.16137      .   S
    Zr24   O42       0.64411      .   S
    Zr11   O42       0.64411      .   S
    Zr3    O43       1.21079      .   S
    Zr22   O43       1.21079      .   S
    Zr23   O44       0.63908      .   S
    Zr8    O44       0.63908      .   S
    Zr11   O45       0.62907      .   S
    Zr25   O45       0.62907      .   S
    Zr8    O46       0.63384      .   S
    Zr22   O46       0.63384      .   S
    Zr26   O47       0.63378      .   S
    Zr10   O47       0.63378      .   S
    Zr26   O48       1.21165      .   S
    Zr2    O48       1.21165  1_565   S
    Zr10   O49       0.63901      .   S
    Zr27   O49       0.63901      .   S
    Zr21   O50       0.62901      .   S
    Zr9    O50       0.62901      .   S
    Zr9    O51       0.64409      .   S
    Zr20   O51       0.64409      .   S
    Zr12   O52       1.23120  1_455   S
    Zr0    O52       1.23120      .   S
    Zr12   O53       1.22306  1_554   S
    Zr2    O53       1.22306  1_565   S
    Zr13   O54       1.21265      .   S
    Zr0    O54       1.21265      .   S
    Zr15   O55       1.31722      .   S
    Zr1    O55       1.31722      .   S
    Zr16   O56       1.22989  1_655   S
    Zr1    O56       1.22989      .   S
    Zr16   O57       1.22296      .   S
    Zr3    O57       1.22296      .   S
    Zr17   O58       1.21375      .   S
    Zr1    O58       1.21375      .   S
    Zr19   O59       1.31948      .   S
    Zr0    O59       1.31948  1_545   S
    Zr20   O60       1.22376  1_556   S
    Zr0    O60       1.22376  1_545   S
    Zr20   O61       1.22802  1_655   S
    Zr2    O61       1.22802      .   S
    Zr21   O62       1.21313      .   S
    Zr2    O62       1.21313      .   S
    Zr23   O63       1.32097      .   S
    Zr3    O63       1.32097      .   S
    Zr24   O64       1.22370      .   S
    Zr1    O64       1.22370      .   S
    Zr24   O65       1.22933  1_455   S
    Zr3    O65       1.22933      .   S
    Zr25   O66       1.21293      .   S
    Zr3    O66       1.21293      .   S
    Zr27   O67       1.32056      .   S
    Zr2    O67       1.32056  1_565   S
    N68    O69       1.12821      .   S
    Zr5    O69       1.88214  1_455   S
    N68    O70       1.01588      .   S
    Zr4    O70       1.76318      .   S
    N71    O72       1.12783      .   S
    Zr9    O72       1.88178  1_655   S
    N71    O73       1.01602      .   S
    Zr8    O73       1.76314      .   S
    N74    O75       1.12820      .   S
    Zr11   O75       1.88226  1_455   S
    N74    O76       1.01582      .   S
    Zr10   O76       1.76309      .   S
    N77    O78       1.12807      .   S
    Zr7    O78       1.88205  1_655   S
    N77    O79       1.01569      .   S
    Zr6    O79       1.76288      .   S
