# CIF file generated by openbabel 2.4.90, see http://openbabel.sf.net
data_I
_chemical_name_common ''
_cell_length_a 22.222
_cell_length_b 16.168
_cell_length_c 15.922
_cell_angle_alpha 89.998
_cell_angle_beta 91.136
_cell_angle_gamma 89.999
_space_group_name_H-M_alt 'P 1'
_space_group_name_Hall 'P 1'
loop_
    _symmetry_equiv_pos_as_xyz
    x,y,z
loop_
    _atom_site_label
    _atom_site_type_symbol
    _atom_site_fract_x
    _atom_site_fract_y
    _atom_site_fract_z
    _atom_site_occupancy
    H0      H    0.06935   0.83681   0.36492   1.000
    H1      H    0.56936   0.83681   0.36492   1.000
    H2      H    0.12739   0.70234   0.63514   1.000
    H3      H    0.62740   0.70234   0.63514   1.000
    H4      H    0.12819   0.70493   0.36611   1.000
    H5      H    0.62819   0.70493   0.36611   1.000
    H6      H    0.06839   0.83405   0.63504   1.000
    H7      H    0.56839   0.83405   0.63504   1.000
    H8      H    0.43065   0.83681   0.63504   1.000
    H9      H    0.93065   0.83681   0.63504   1.000
    H10     H    0.37261   0.70235   0.36482   1.000
    H11     H    0.87261   0.70235   0.36482   1.000
    H12     H    0.37181   0.70493   0.63385   1.000
    H13     H    0.87182   0.70493   0.63385   1.000
    H14     H    0.43162   0.83406   0.36492   1.000
    H15     H    0.93162   0.83406   0.36492   1.000
    H16     H    0.43065   0.16319   0.63504   1.000
    H17     H    0.93065   0.16319   0.63504   1.000
    H18     H    0.37261   0.29767   0.36482   1.000
    H19     H    0.87261   0.29767   0.36482   1.000
    H20     H    0.37182   0.29507   0.63385   1.000
    H21     H    0.87182   0.29507   0.63380   1.000
    H22     H    0.43162   0.16596   0.36492   1.000
    H23     H    0.93162   0.16596   0.36492   1.000
    H24     H    0.06936   0.16320   0.36492   1.000
    H25     H    0.56936   0.16320   0.36492   1.000
    H26     H    0.12739   0.29766   0.63514   1.000
    H27     H    0.62740   0.29765   0.63514   1.000
    H28     H    0.12819   0.29508   0.36611   1.000
    H29     H    0.62820   0.29507   0.36611   1.000
    H30     H    0.06839   0.16595   0.63504   1.000
    H31     H    0.56839   0.16595   0.63504   1.000
    H32     H    0.34888   0.49998   0.71426   1.000
    H33     H    0.84888   0.50000   0.71426   1.000
    H34     H    0.16325   0.50000   0.72737   1.000
    H35     H    0.66326   0.50000   0.72737   1.000
    H36     H    0.16687   0.49999   0.88630   1.000
    H37     H    0.66687   0.50000   0.88637   1.000
    H38     H    0.36051   0.49997   0.87325   1.000
    H39     H    0.86052   0.50000   0.87325   1.000
    H40     H    0.15113   0.50003   0.28570   1.000
    H41     H    0.65113   0.50001   0.28570   1.000
    H42     H    0.33675   0.50001   0.27200   1.000
    H43     H    0.83676   0.50001   0.27259   1.000
    H44     H    0.33313   0.50001   0.11359   1.000
    H45     H    0.83314   0.50001   0.11359   1.000
    H46     H    0.13949   0.50004   0.12671   1.000
    H47     H    0.63949   0.50001   0.12671   1.000
    C48     C    0.13110   0.69561   0.50060   1.000
    C49     C    0.63110   0.69561   0.50060   1.000
    C50     C    0.03176   0.92388   0.49978   1.000
    C51     C    0.53176   0.92388   0.49978   1.000
    C52     C    0.08166   0.80693   0.42422   1.000
    C53     C    0.58166   0.80693   0.42422   1.000
    C54     C    0.11387   0.73202   0.57630   1.000
    C55     C    0.61388   0.73202   0.57630   1.000
    C56     C    0.11433   0.73348   0.42458   1.000
    C57     C    0.61433   0.73348   0.42458   1.000
    C58     C    0.06515   0.84397   0.49994   1.000
    C59     C    0.56516   0.84397   0.49994   1.000
    C60     C    0.08112   0.80540   0.57599   1.000
    C61     C    0.58113   0.80540   0.57599   1.000
    C62     C    0.36890   0.69562   0.49900   1.000
    C63     C    0.86891   0.69562   0.49929   1.000
    C64     C    0.46825   0.92389   0.50018   1.000
    C65     C    0.96825   0.92389   0.50018   1.000
    C66     C    0.41835   0.80693   0.57574   1.000
    C67     C    0.91835   0.80693   0.57574   1.000
    C68     C    0.38613   0.73203   0.42360   1.000
    C69     C    0.88614   0.73203   0.42361   1.000
    C70     C    0.38567   0.73348   0.57538   1.000
    C71     C    0.88568   0.73348   0.57538   1.000
    C72     C    0.43485   0.84397   0.50002   1.000
    C73     C    0.93485   0.84397   0.50002   1.000
    C74     C    0.41888   0.80541   0.42397   1.000
    C75     C    0.91888   0.80541   0.42397   1.000
    C76     C    0.36891   0.30439   0.49930   1.000
    C77     C    0.86891   0.30439   0.49930   1.000
    C78     C    0.46825   0.07612   0.50018   1.000
    C79     C    0.96825   0.07612   0.50018   1.000
    C80     C    0.41835   0.19307   0.57574   1.000
    C81     C    0.91835   0.19307   0.57574   1.000
    C82     C    0.38613   0.26799   0.42362   1.000
    C83     C    0.88613   0.26799   0.42362   1.000
    C84     C    0.38568   0.26653   0.57538   1.000
    C85     C    0.88568   0.26653   0.57538   1.000
    C86     C    0.43485   0.15604   0.50002   1.000
    C87     C    0.93486   0.15604   0.50002   1.000
    C88     C    0.41888   0.19461   0.42397   1.000
    C89     C    0.91888   0.19461   0.42397   1.000
    C90     C    0.13110   0.30439   0.50067   1.000
    C91     C    0.63110   0.30439   0.50067   1.000
    C92     C    0.03176   0.07612   0.49978   1.000
    C93     C    0.53176   0.07612   0.49978   1.000
    C94     C    0.08166   0.19308   0.42422   1.000
    C95     C    0.58166   0.19307   0.42422   1.000
    C96     C    0.11387   0.26798   0.57635   1.000
    C97     C    0.61388   0.26798   0.57635   1.000
    C98     C    0.11433   0.26653   0.42458   1.000
    C99     C    0.61434   0.26653   0.42458   1.000
    C100    C    0.06515   0.15603   0.49994   1.000
    C101    C    0.56516   0.15603   0.49994   1.000
    C102    C    0.08113   0.19460   0.57599   1.000
    C103    C    0.58113   0.19460   0.57599   1.000
    C104    C    0.31020   0.49998   0.75530   1.000
    C105    C    0.81020   0.50000   0.75530   1.000
    C106    C    0.20568   0.50000   0.76290   1.000
    C107    C    0.70569   0.50000   0.76293   1.000
    C108    C    0.20780   0.49999   0.85001   1.000
    C109    C    0.70780   0.50000   0.85000   1.000
    C110    C    0.26442   0.49999   0.89077   1.000
    C111    C    0.76442   0.50000   0.89070   1.000
    C112    C    0.31634   0.49998   0.84240   1.000
    C113    C    0.81634   0.50000   0.84240   1.000
    C114    C    0.18981   0.50002   0.24466   1.000
    C115    C    0.68981   0.50001   0.24466   1.000
    C116    C    0.29432   0.50001   0.23703   1.000
    C117    C    0.79432   0.50001   0.23703   1.000
    C118    C    0.29221   0.50001   0.14996   1.000
    C119    C    0.79221   0.50001   0.14990   1.000
    C120    C    0.23559   0.50002   0.10900   1.000
    C121    C    0.73559   0.50001   0.10920   1.000
    C122    C    0.18367   0.50003   0.15756   1.000
    C123    C    0.68367   0.50001   0.15756   1.000
    C124    C    0.06209   1.00000   0.49962   1.000
    C125    C    0.56209   1.00000   0.49962   1.000
    C126    C    0.43792   0.00000   0.50034   1.000
    C127    C    0.93792   0.00000   0.50034   1.000
    Br128   Br   0.14868   0.99999   0.49982   1.000
    Br129   Br   0.64868   0.99999   0.49982   1.000
    Br130   Br   0.35133   0.00001   0.50014   1.000
    Br131   Br   0.85133   0.00001   0.50014   1.000
    N132    N    0.25588   0.49999   0.71640   1.000
    N133    N    0.75589   0.50000   0.71640   1.000
    N134    N    0.27420   0.49998   0.97915   1.000
    N135    N    0.77420   0.50000   0.97915   1.000
    N136    N    0.24412   0.50001   0.28351   1.000
    N137    N    0.74412   0.50001   0.28351   1.000
    N138    N    0.22581   0.50002   0.02081   1.000
    N139    N    0.72581   0.50001   0.02081   1.000
loop_
    _geom_bond_atom_site_label_1
    _geom_bond_atom_site_label_2
    _geom_bond_distance
    _geom_bond_site_symmetry_2
    _ccdc_geom_bond_type
    N139   C121      1.41976      .   S
    N139   N135      1.27444  1_554   S
    N138   C120      1.41660      .   S
    N138   N134      1.27444  1_554   S
    C120   C118      1.40562      .   S
    C120   C122      1.40161      .   S
    C121   C119      1.40380      .   S
    C121   C123      1.39980      .   S
    H44    C118      1.08783      .   S
    H45    C119      1.08731      .   S
    H46    C122      1.08897      .   S
    H47    C123      1.08897      .   S
    C119   C117      1.38715      .   S
    C118   C116      1.38619      .   S
    C122   C114      1.39081      .   S
    C123   C115      1.39081      .   S
    C117   H43       1.09019      .   S
    C117   N137      1.35087      .   S
    C116   H42       1.08550      .   S
    C116   N136      1.35089      .   S
    C114   N136      1.34525      .   S
    C114   H40       1.09002      .   S
    C115   N137      1.34527      .   S
    C115   H41       1.09004      .   S
    H19    C83       1.08899      .   S
    H18    C82       1.08898      .   S
    H11    C69       1.08885      .   S
    H10    C68       1.08871      .   S
    H0     C52       1.09057      .   S
    H1     C53       1.09057      .   S
    H22    C88       1.09055      .   S
    H23    C89       1.09055      .   S
    H24    C94       1.09056      .   S
    H25    C95       1.09057      .   S
    H15    C75       1.09055      .   S
    H14    C74       1.09054      .   S
    H29    C99       1.08898      .   S
    H4     C56       1.08900      .   S
    H5     C57       1.08899      .   S
    H28    C98       1.08898      .   S
    C68    C74       1.39172      .   S
    C68    C62       1.39732      .   S
    C69    C75       1.39170      .   S
    C69    C63       1.40118      .   S
    C82    C88       1.39172      .   S
    C82    C76       1.40116      .   S
    C83    C89       1.39171      .   S
    C83    C77       1.40117      .   S
    C88    C86       1.40143      .   S
    C75    C73       1.40144      .   S
    C74    C72       1.40144      .   S
    C89    C87       1.40143      .   S
    C52    C56       1.39194      .   S
    C52    C58       1.40147      .   S
    C95    C99       1.39194      .   S
    C95    C101      1.40149      .   S
    C94    C98       1.39196      .   S
    C94    C100      1.40148      .   S
    C53    C57       1.39194      .   S
    C53    C59       1.40148      .   S
    C99    C91       1.40122      .   S
    C98    C90       1.40122      .   S
    C56    C48       1.40026      .   S
    C57    C49       1.40025      .   S
    C62    C70       1.40520      .   S
    C63    C71       1.40122      .   S
    C77    C85       1.40108      .   S
    C76    C84       1.40107      .   S
    C124   C92       1.40324  1_565   S
    C124   C50       1.40308      .   S
    C124   Br128     1.92414      .   S
    C125   C93       1.40323  1_565   S
    C125   C51       1.40311      .   S
    C125   Br129     1.92414      .   S
    C93    C101      1.48999      .   S
    C93    C78       1.41155      .   S
    C92    C100      1.49001      .   S
    C92    C79       1.41135  1_455   S
    C51    C59       1.48998      .   S
    C51    C64       1.41155      .   S
    C50    C58       1.48999      .   S
    C50    C65       1.41137  1_455   S
    C101   C103      1.40144      .   S
    C100   C102      1.40144      .   S
    C59    C61       1.40143      .   S
    C58    C60       1.40143      .   S
    C72    C64       1.49000      .   S
    C72    C66       1.40148      .   S
    C73    C65       1.49000      .   S
    C73    C67       1.40148      .   S
    C86    C78       1.48998      .   S
    C86    C80       1.40147      .   S
    C87    C79       1.48999      .   S
    C87    C81       1.40147      .   S
    Br131  C127      1.92414      .   S
    Br130  C126      1.92414      .   S
    C65    C127      1.40313  1_565   S
    C64    C126      1.40314  1_565   S
    C78    C126      1.40324      .   S
    C79    C127      1.40324      .   S
    C48    C54       1.40145      .   S
    C49    C55       1.40145      .   S
    C90    C96       1.40118      .   S
    C91    C97       1.40118      .   S
    C84    C80       1.39195      .   S
    C84    H20       1.08899      .   S
    C85    C81       1.39194      .   S
    C85    H21       1.08831      .   S
    C71    C67       1.39194      .   S
    C71    H13       1.08898      .   S
    C70    C66       1.39193      .   S
    C70    H12       1.08899      .   S
    C80    H16       1.09056      .   S
    C81    H17       1.09057      .   S
    C67    H9        1.09056      .   S
    C66    H8        1.09057      .   S
    C61    C55       1.39172      .   S
    C61    H7        1.09055      .   S
    C60    C54       1.39172      .   S
    C60    H6        1.09055      .   S
    C103   C97       1.39170      .   S
    C103   H31       1.09055      .   S
    C102   C96       1.39171      .   S
    C102   H30       1.09054      .   S
    C55    H3        1.08953      .   S
    C54    H2        1.08953      .   S
    C97    H27       1.08885      .   S
    C96    H26       1.08885      .   S
    H33    C105      1.09002      .   S
    H32    C104      1.09004      .   S
    N132   C104      1.34562      .   S
    N132   C106      1.35103      .   S
    N133   C105      1.34560      .   S
    N133   C107      1.35134      .   S
    H35    C107      1.09019      .   S
    H34    C106      1.08995      .   S
    C104   C112      1.39081      .   S
    C105   C113      1.39081      .   S
    C106   C108      1.38683      .   S
    C107   C109      1.38619      .   S
    C112   H38       1.08897      .   S
    C112   C110      1.39987      .   S
    C113   H39       1.08897      .   S
    C113   C111      1.39926      .   S
    C109   H37       1.08783      .   S
    C109   C111      1.40378      .   S
    C108   H36       1.08713      .   S
    C108   C110      1.40422      .   S
    C111   N135      1.42070      .   S
    C110   N134      1.41960      .   S
