# CIF file generated by openbabel 2.4.90, see http://openbabel.sf.net
data_I
_chemical_name_common ''
_cell_length_a 22.222
_cell_length_b 16.168
_cell_length_c 15.922
_cell_angle_alpha 89.998
_cell_angle_beta 91.136
_cell_angle_gamma 89.999
_space_group_name_H-M_alt 'P 1'
_space_group_name_Hall 'P 1'
loop_
    _symmetry_equiv_pos_as_xyz
    x,y,z
loop_
    _atom_site_label
    _atom_site_type_symbol
    _atom_site_fract_x
    _atom_site_fract_y
    _atom_site_fract_z
    _atom_site_occupancy
    C0      C    0.16957   0.61941   0.50134   1.000
    C1      C    0.66957   0.61941   0.50134   1.000
    C2      C    0.33044   0.61941   0.49862   1.000
    C3      C    0.83044   0.61941   0.49862   1.000
    C4      C    0.33044   0.38060   0.49862   1.000
    C5      C    0.83044   0.38060   0.49862   1.000
    C6      C    0.16957   0.38060   0.50134   1.000
    C7      C    0.66957   0.38059   0.50134   1.000
