# CIF file generated by openbabel 2.4.90, see http://openbabel.sf.net
data_I
_chemical_name_common ''
_cell_length_a 22.222
_cell_length_b 16.168
_cell_length_c 15.922
_cell_angle_alpha 89.998
_cell_angle_beta 91.136
_cell_angle_gamma 89.999
_space_group_name_H-M_alt 'P 1'
_space_group_name_Hall 'P 1'
loop_
    _symmetry_equiv_pos_as_xyz
    x,y,z
loop_
    _atom_site_label
    _atom_site_type_symbol
    _atom_site_fract_x
    _atom_site_fract_y
    _atom_site_fract_z
    _atom_site_occupancy
    N0      N    0.25000   0.50000   0.99994   1.000
    N1      N    0.00000   0.00000   0.49998   1.000
    N2      N    0.50000   0.00000   0.49997   1.000
    N3      N    0.75001   0.50000   0.99997   1.000
    Zr4     Zr   0.25000   0.50000   0.49998   1.000
    O5      O    0.33742   0.33563   0.49972   1.000
    O6      O    0.16258   0.66438   0.50023   1.000
    O7      O    0.33742   0.66438   0.49969   1.000
    O8      O    0.16259   0.33563   0.50024   1.000
    O9      O    0.25076   0.50000   0.66282   1.000
    O10     O    0.24924   0.50001   0.33711   1.000
    Zr11    Zr   0.75001   0.50000   0.49998   1.000
    O12     O    0.83742   0.66438   0.49972   1.000
    O13     O    0.83742   0.33563   0.49972   1.000
    O14     O    0.66259   0.33563   0.50023   1.000
    O15     O    0.75077   0.50000   0.66283   1.000
    O16     O    0.66259   0.66438   0.50023   1.000
    O17     O    0.74924   0.50000   0.33712   1.000
loop_
    _geom_bond_atom_site_label_1
    _geom_bond_atom_site_label_2
    _geom_bond_distance
    _geom_bond_site_symmetry_2
    _ccdc_geom_bond_type
    Zr4    O5        3.29195      .   S
    N2     O5        6.51901      .   S
    Zr4    O6        3.29193      .   S
    N1     O6        6.51897  1_545   S
    Zr4    O7        3.29202      .   S
    N2     O7        6.51910  1_545   S
    Zr4    O8        3.29200      .   S
    N1     O8        6.51908      .   S
    Zr4    O9        2.59253      .   S
    N0     O9        5.36789      .   S
    Zr4    O10       2.59296      .   S
    N0     O10       5.36879  1_556   S
    Zr11   O12       3.29200      .   S
    N1     O12       6.51906  1_445   S
    Zr11   O13       3.29194      .   S
    N1     O13       6.51897  1_455   S
    Zr11   O14       3.29201      .   S
    N2     O14       6.51910      .   S
    Zr11   O15       2.59267      .   S
    N3     O15       5.36829      .   S
    Zr11   O16       3.29194      .   S
    N2     O16       6.51900  1_545   S
    Zr11   O17       2.59283      .   S
    N3     O17       5.36838  1_556   S
