# CIF file generated by openbabel 2.4.90, see http://openbabel.sf.net
data_I
_chemical_name_common ''
_cell_length_a 13.254
_cell_length_b 13.186
_cell_length_c 13.156
_cell_angle_alpha 93.741
_cell_angle_beta 96.041
_cell_angle_gamma 83.687
_space_group_name_H-M_alt 'P 1'
_space_group_name_Hall 'P 1'
loop_
    _symmetry_equiv_pos_as_xyz
    x,y,z
loop_
    _atom_site_label
    _atom_site_type_symbol
    _atom_site_fract_x
    _atom_site_fract_y
    _atom_site_fract_z
    _atom_site_occupancy
    N0      N    0.49831   0.99975   0.50021   1.000
    N1      N    0.99846   0.49944   0.99945   1.000
    N2      N    0.49881   0.49984   0.49934   1.000
    N3      N    0.24837   0.18917   0.18979   1.000
    N4      N    0.99835   0.50006   0.49980   1.000
    N5      N    0.74997   0.81030   0.80986   1.000
    Zr6     Zr   0.16940   0.15982   0.72472   1.000
    O7      O    0.05449   0.05751   0.74041   1.000
    O8      O    0.19740   0.16831   0.85866   1.000
    O9      O    0.26672   0.11284   0.65781   1.000
    O10     O    0.11824   0.26104   0.65897   1.000
    Zr11    Zr   0.32513   0.72480   0.15899   1.000
    O12     O    0.44173   0.74104   0.05688   1.000
    O13     O    0.29753   0.85849   0.16793   1.000
    O14     O    0.22852   0.65768   0.11199   1.000
    O15     O    0.37705   0.65893   0.26021   1.000
    Zr16    Zr   0.82667   0.84049   0.27522   1.000
    O17     O    0.94222   0.94255   0.25936   1.000
    O18     O    0.87803   0.73921   0.34088   1.000
    O19     O    0.72955   0.88729   0.34228   1.000
    O20     O    0.79919   0.83179   0.14110   1.000
    Zr21    Zr   0.67124   0.27516   0.84001   1.000
    O22     O    0.69930   0.14132   0.83125   1.000
    O23     O    0.55490   0.25923   0.94196   1.000
    O24     O    0.76805   0.34190   0.88708   1.000
    O25     O    0.61975   0.34090   0.73866   1.000
loop_
    _geom_bond_atom_site_label_1
    _geom_bond_atom_site_label_2
    _geom_bond_distance
    _geom_bond_site_symmetry_2
    _ccdc_geom_bond_type
    Zr6    O7        2.17637      .   S
    N5     O7        5.63984  1_665   S
    Zr6    O8        1.76104      .   S
    N3     O8        4.33291  1_554   S
    Zr6    O9        1.67762      .   S
    N0     O9        3.98426  1_565   S
    Zr6    O10       1.67862      .   S
    N4     O10       3.98776  1_655   S
    Zr11   O12       2.18769      .   S
    N5     O12       5.66474  1_556   S
    Zr11   O13       1.75937      .   S
    N3     O13       4.33253  1_545   S
    Zr11   O14       1.67818      .   S
    N1     O14       3.98604  1_656   S
    Zr11   O15       1.68167      .   S
    N2     O15       3.99379      .   S
    Zr16   O17       2.18119      .   S
    N3     O17       5.65237  1_445   S
    Zr16   O18       1.67925      .   S
    N4     O18       3.98890      .   S
    Zr16   O19       1.67617      .   S
    N0     O19       3.98089      .   S
    Zr16   O20       1.76256      .   S
    N5     O20       4.33335  1_556   S
    Zr21   O22       1.76179      .   S
    N5     O22       4.33786  1_565   S
    Zr21   O23       2.18272      .   S
    N3     O23       5.65649  1_554   S
    Zr21   O24       1.67761      .   S
    N1     O24       3.98393      .   S
    Zr21   O25       1.68056      .   S
    N2     O25       3.99179      .   S
