# CIF file generated by openbabel 2.4.90, see http://openbabel.sf.net
data_I
_chemical_name_common ''
_cell_length_a 13.07
_cell_length_b 15.248
_cell_length_c 19.142
_cell_angle_alpha 89.984
_cell_angle_beta 89.996
_cell_angle_gamma 89.964
_space_group_name_H-M_alt 'P 1'
_space_group_name_Hall 'P 1'
loop_
    _symmetry_equiv_pos_as_xyz
    x,y,z
loop_
    _atom_site_label
    _atom_site_type_symbol
    _atom_site_fract_x
    _atom_site_fract_y
    _atom_site_fract_z
    _atom_site_occupancy
    Cd0     Cd   0.17105   0.77199   0.33125   1.000
    Cd1     Cd   0.67147   0.72728   0.66857   1.000
    Cd2     Cd   0.82893   0.27224   0.16871   1.000
    Cd3     Cd   0.67146   0.77262   0.16861   1.000
    Cd4     Cd   0.82892   0.22803   0.66873   1.000
    Cd5     Cd   0.32850   0.27274   0.33140   1.000
    Cd6     Cd   0.17105   0.72778   0.83127   1.000
    Cd7     Cd   0.32851   0.22740   0.83137   1.000
