# CIF file generated by openbabel 2.4.90, see http://openbabel.sf.net
data_I
_chemical_name_common ''
_cell_length_a 13.07
_cell_length_b 15.248
_cell_length_c 19.142
_cell_angle_alpha 89.984
_cell_angle_beta 89.996
_cell_angle_gamma 89.964
_space_group_name_H-M_alt 'P 1'
_space_group_name_Hall 'P 1'
loop_
    _symmetry_equiv_pos_as_xyz
    x,y,z
loop_
    _atom_site_label
    _atom_site_type_symbol
    _atom_site_fract_x
    _atom_site_fract_y
    _atom_site_fract_z
    _atom_site_occupancy
    N0      N    0.99752   0.46617   0.74278   1.000
    N1      N    0.03571   0.22144   0.48200   1.000
    N2      N    0.49629   0.03483   0.25703   1.000
    N3      N    0.53611   0.27894   0.51776   1.000
    N4      N    0.00318   0.53385   0.25720   1.000
    N5      N    0.53625   0.22124   0.01767   1.000
    N6      N    0.96548   0.72122   0.01800   1.000
    N7      N    0.50361   0.53401   0.24288   1.000
    N8      N    0.46374   0.77879   0.98254   1.000
    N9      N    0.49635   0.46602   0.75709   1.000
    N10     N    0.03573   0.27881   0.98224   1.000
    N11     N    0.96550   0.77858   0.51798   1.000
    N12     N    0.46387   0.72109   0.48220   1.000
    N13     N    0.99754   0.03473   0.24283   1.000
    N14     N    0.50368   0.96597   0.74294   1.000
    N15     N    0.00316   0.96608   0.75715   1.000
    Zr16    Zr   0.67146   0.77262   0.16861   1.000
    O17     O    0.61955   0.69707   0.19250   1.000
    O18     O    0.60764   0.77520   0.10893   1.000
    O19     O    0.76599   0.76228   0.12688   1.000
    Zr20    Zr   0.67147   0.72728   0.66857   1.000
    O21     O    0.61958   0.80285   0.69249   1.000
    O22     O    0.76600   0.73761   0.62685   1.000
    O23     O    0.60769   0.72469   0.60881   1.000
    Zr24    Zr   0.32851   0.22740   0.83137   1.000
    O25     O    0.39234   0.22482   0.89111   1.000
    O26     O    0.38042   0.30295   0.80747   1.000
    O27     O    0.23429   0.23774   0.87316   1.000
    Zr28    Zr   0.17105   0.72778   0.83127   1.000
    O29     O    0.26511   0.73803   0.87325   1.000
    O30     O    0.11909   0.80324   0.80743   1.000
    O31     O    0.10778   0.72504   0.89111   1.000
    Zr32    Zr   0.32850   0.27274   0.33140   1.000
    O33     O    0.39228   0.27533   0.39117   1.000
    O34     O    0.38040   0.19736   0.30748   1.000
    O35     O    0.23428   0.26241   0.37312   1.000
    Zr36    Zr   0.82893   0.27224   0.16871   1.000
    O37     O    0.88107   0.19698   0.19255   1.000
    O38     O    0.89251   0.27498   0.10894   1.000
    O39     O    0.73486   0.26199   0.12679   1.000
    Zr40    Zr   0.82892   0.22803   0.66873   1.000
    O41     O    0.73482   0.23824   0.62684   1.000
    O42     O    0.88105   0.30344   0.69255   1.000
    O43     O    0.89249   0.22529   0.60889   1.000
    Zr44    Zr   0.17105   0.77199   0.33125   1.000
    O45     O    0.26515   0.76179   0.37314   1.000
    O46     O    0.11910   0.69658   0.30743   1.000
    O47     O    0.10779   0.77473   0.39109   1.000
    O48     O    0.12013   0.85253   0.30348   1.000
    O49     O    0.88004   0.35248   0.19650   1.000
    O50     O    0.38009   0.35281   0.30360   1.000
    O51     O    0.61988   0.64721   0.69638   1.000
    O52     O    0.88002   0.14768   0.69650   1.000
    O53     O    0.61986   0.85294   0.19638   1.000
    O54     O    0.38011   0.14728   0.80359   1.000
    O55     O    0.12012   0.64754   0.80348   1.000
loop_
    _geom_bond_atom_site_label_1
    _geom_bond_atom_site_label_2
    _geom_bond_distance
    _geom_bond_site_symmetry_2
    _ccdc_geom_bond_type
    Zr16   O17       1.41327      .   S
    N7     O17       3.06783      .   S
    Zr16   O18       1.41518      .   S
    N8     O18       3.06495  1_556   S
    Zr16   O19       1.47948      .   S
    N6     O19       3.39594      .   S
    Zr20   O21       1.41306      .   S
    N14    O21       3.06752      .   S
    Zr20   O22       1.47948      .   S
    N11    O22       3.39615      .   S
    Zr20   O23       1.41609      .   S
    N12    O23       3.06765      .   S
    Zr24   O25       1.41611      .   S
    N5     O25       3.06769  1_554   S
    Zr24   O26       1.41327      .   S
    N9     O26       3.06782      .   S
    Zr24   O27       1.47679      .   S
    N10    O27       3.38897      .   S
    Zr28   O29       1.47719      .   S
    N8     O29       3.39201      .   S
    Zr28   O30       1.41138      .   S
    N15    O30       3.06307      .   S
    Zr28   O31       1.41331      .   S
    N6     O31       3.05965  1_654   S
    Zr32   O33       1.41609      .   S
    N3     O33       3.06765      .   S
    Zr32   O34       1.41065      .   S
    N2     O34       3.06034      .   S
    Zr32   O35       1.47613      .   S
    N1     O35       3.38692      .   S
    Zr36   O37       1.41005      .   S
    N13    O37       3.05924      .   S
    Zr36   O38       1.41466      .   S
    N10    O38       3.06403  1_456   S
    Zr36   O39       1.47656      .   S
    N5     O39       3.38988      .   S
    Zr40   O41       1.47639      .   S
    N3     O41       3.38936      .   S
    Zr40   O42       1.41265      .   S
    N0     O42       3.06675      .   S
    Zr40   O43       1.41561      .   S
    N1     O43       3.06690  1_455   S
    Zr44   O45       1.47637      .   S
    N12    O45       3.38930      .   S
    Zr44   O46       1.41150      .   S
    N4     O46       3.06321      .   S
    Zr44   O47       1.41325      .   S
    N11    O47       3.05955  1_655   S
    N13    O48       3.40971  1_645   S
    Zr44   O48       1.49406      .   S
    Zr36   O49       1.49246      .   S
    N4     O49       3.40541  1_455   S
    N7     O50       3.40511      .   S
    Zr32   O50       1.49298      .   S
    Zr20   O51       1.49299      .   S
    N9     O51       3.40511      .   S
    Zr40   O52       1.49263      .   S
    N15    O52       3.40566  1_465   S
    N2     O53       3.41237  1_545   S
    Zr16   O53       1.49543      .   S
    N14    O54       3.40521  1_565   S
    Zr24   O54       1.49304      .   S
    N0     O55       3.40206  1_655   S
    Zr28   O55       1.49141      .   S
