# CIF file generated by openbabel 2.4.90, see http://openbabel.sf.net
data_I
_chemical_name_common ''
_cell_length_a 13.07
_cell_length_b 15.248
_cell_length_c 19.142
_cell_angle_alpha 89.984
_cell_angle_beta 89.996
_cell_angle_gamma 89.964
_space_group_name_H-M_alt 'P 1'
_space_group_name_Hall 'P 1'
loop_
    _symmetry_equiv_pos_as_xyz
    x,y,z
loop_
    _atom_site_label
    _atom_site_type_symbol
    _atom_site_fract_x
    _atom_site_fract_y
    _atom_site_fract_z
    _atom_site_occupancy
    N0      N    0.99752   0.46617   0.74278   1.000
    N1      N    0.03571   0.22144   0.48200   1.000
    N2      N    0.49629   0.03483   0.25703   1.000
    N3      N    0.53611   0.27894   0.51776   1.000
    N4      N    0.00318   0.53385   0.25720   1.000
    N5      N    0.53625   0.22124   0.01767   1.000
    N6      N    0.96548   0.72122   0.01800   1.000
    N7      N    0.50361   0.53401   0.24288   1.000
    N8      N    0.46374   0.77879   0.98254   1.000
    N9      N    0.49635   0.46602   0.75709   1.000
    N10     N    0.03573   0.27881   0.98224   1.000
    N11     N    0.96550   0.77858   0.51798   1.000
    N12     N    0.46387   0.72109   0.48220   1.000
    N13     N    0.99754   0.03473   0.24283   1.000
    N14     N    0.50368   0.96597   0.74294   1.000
    N15     N    0.00316   0.96608   0.75715   1.000
    Zr16    Zr   0.67146   0.77262   0.16861   1.000
    O17     O    0.61955   0.69707   0.19250   1.000
    O18     O    0.60764   0.77520   0.10893   1.000
    O19     O    0.76599   0.76228   0.12688   1.000
    O20     O    0.61486   0.84759   0.20126   1.000
    O21     O    0.62487   0.85828   0.19150   1.000
    Zr22    Zr   0.67147   0.72728   0.66857   1.000
    O23     O    0.61488   0.65256   0.70125   1.000
    O24     O    0.61958   0.80285   0.69249   1.000
    O25     O    0.62489   0.64187   0.69150   1.000
    O26     O    0.76600   0.73761   0.62685   1.000
    O27     O    0.60769   0.72469   0.60881   1.000
    Zr28    Zr   0.32851   0.22740   0.83137   1.000
    O29     O    0.39234   0.22482   0.89111   1.000
    O30     O    0.38042   0.30295   0.80747   1.000
    O31     O    0.37510   0.14194   0.80847   1.000
    O32     O    0.38511   0.15262   0.79872   1.000
    O33     O    0.23429   0.23774   0.87316   1.000
    Zr34    Zr   0.17105   0.72778   0.83127   1.000
    O35     O    0.26511   0.73803   0.87325   1.000
    O36     O    0.11514   0.65290   0.79859   1.000
    O37     O    0.12510   0.64219   0.80836   1.000
    O38     O    0.11909   0.80324   0.80743   1.000
    O39     O    0.10778   0.72504   0.89111   1.000
    Zr40    Zr   0.32850   0.27274   0.33140   1.000
    O41     O    0.38509   0.34746   0.29872   1.000
    O42     O    0.37508   0.35815   0.30847   1.000
    O43     O    0.39228   0.27533   0.39117   1.000
    O44     O    0.38040   0.19736   0.30748   1.000
    O45     O    0.23428   0.26241   0.37312   1.000
    Zr46    Zr   0.82893   0.27224   0.16871   1.000
    O47     O    0.88502   0.34712   0.20139   1.000
    O48     O    0.88107   0.19698   0.19255   1.000
    O49     O    0.87505   0.35783   0.19162   1.000
    O50     O    0.89251   0.27498   0.10894   1.000
    O51     O    0.73486   0.26199   0.12679   1.000
    Zr52    Zr   0.82892   0.22803   0.66873   1.000
    O53     O    0.87504   0.14233   0.69162   1.000
    O54     O    0.73482   0.23824   0.62684   1.000
    O55     O    0.88105   0.30344   0.69255   1.000
    O56     O    0.88500   0.15304   0.70137   1.000
    O57     O    0.89249   0.22529   0.60889   1.000
    Zr58    Zr   0.17105   0.77199   0.33125   1.000
    O59     O    0.11515   0.84718   0.29860   1.000
    O60     O    0.26515   0.76179   0.37314   1.000
    O61     O    0.12512   0.85789   0.30836   1.000
    O62     O    0.11910   0.69658   0.30743   1.000
    O63     O    0.10779   0.77473   0.39109   1.000
loop_
    _geom_bond_atom_site_label_1
    _geom_bond_atom_site_label_2
    _geom_bond_distance
    _geom_bond_site_symmetry_2
    _ccdc_geom_bond_type
    Zr16   O17       1.41327      .   S
    N7     O17       3.06783      .   S
    Zr16   O18       1.41518      .   S
    N8     O18       3.06495  1_556   S
    Zr16   O19       1.47948      .   S
    N6     O19       3.39594      .   S
    Zr16   O20       1.49800      .   S
    N2     O20       3.41870  1_545   S
    Zr16   O21       1.50596      .   S
    N2     O21       3.41178  1_545   S
    Zr22   O23       1.49578      .   S
    N9     O23       3.41120      .   S
    Zr22   O24       1.41306      .   S
    N14    O24       3.06752      .   S
    Zr22   O25       1.50332      .   S
    N9     O25       3.40478      .   S
    Zr22   O26       1.47948      .   S
    N11    O26       3.39615      .   S
    Zr22   O27       1.41609      .   S
    N12    O27       3.06765      .   S
    Zr28   O29       1.41611      .   S
    N5     O29       3.06769  1_554   S
    Zr28   O30       1.41327      .   S
    N9     O30       3.06782      .   S
    Zr28   O31       1.50343      .   S
    N14    O31       3.40483  1_565   S
    Zr28   O32       1.49576      .   S
    N14    O32       3.41135  1_565   S
    Zr28   O33       1.47679      .   S
    N10    O33       3.38897      .   S
    Zr34   O35       1.47719      .   S
    N8     O35       3.39201      .   S
    Zr34   O36       1.49343      .   S
    N0     O36       3.40872  1_655   S
    Zr34   O37       1.50252      .   S
    N0     O37       3.40117  1_655   S
    Zr34   O38       1.41138      .   S
    N15    O38       3.06307      .   S
    Zr34   O39       1.41331      .   S
    N6     O39       3.05965  1_654   S
    Zr40   O41       1.49577      .   S
    N7     O41       3.41120      .   S
    Zr40   O42       1.50331      .   S
    N7     O42       3.40478      .   S
    Zr40   O43       1.41609      .   S
    N3     O43       3.06765      .   S
    Zr40   O44       1.41065      .   S
    N2     O44       3.06034      .   S
    Zr40   O45       1.47613      .   S
    N1     O45       3.38692      .   S
    Zr46   O47       1.49459      .   S
    N4     O47       3.41193  1_455   S
    Zr46   O48       1.41005      .   S
    N13    O48       3.05924      .   S
    Zr46   O49       1.50346      .   S
    N4     O49       3.40466  1_455   S
    Zr46   O50       1.41466      .   S
    N10    O50       3.06403  1_456   S
    Zr46   O51       1.47656      .   S
    N5     O51       3.38988      .   S
    Zr52   O53       1.50375      .   S
    N15    O53       3.40480  1_465   S
    Zr52   O54       1.47639      .   S
    N3     O54       3.38936      .   S
    Zr52   O55       1.41265      .   S
    N0     O55       3.06675      .   S
    Zr52   O56       1.49462      .   S
    N15    O56       3.41227  1_465   S
    Zr52   O57       1.41561      .   S
    N1     O57       3.06690  1_455   S
    Zr58   O59       1.49578      .   S
    N13    O59       3.41667  1_645   S
    Zr58   O60       1.47637      .   S
    N12    O60       3.38930      .   S
    Zr58   O61       1.50544      .   S
    N13    O61       3.40851  1_645   S
    Zr58   O62       1.41150      .   S
    N4     O62       3.06321      .   S
    Zr58   O63       1.41325      .   S
    N11    O63       3.05955  1_655   S
