# CIF file generated by openbabel 2.4.90, see http://openbabel.sf.net
data_I
_chemical_name_common ''
_cell_length_a 9.2075
_cell_length_b 11.1285
_cell_length_c 12.191
_cell_angle_alpha 85.613
_cell_angle_beta 89.858
_cell_angle_gamma 89.891
_space_group_name_H-M_alt 'P 1'
_space_group_name_Hall 'P 1'
loop_
    _symmetry_equiv_pos_as_xyz
    x,y,z
loop_
    _atom_site_label
    _atom_site_type_symbol
    _atom_site_fract_x
    _atom_site_fract_y
    _atom_site_fract_z
    _atom_site_occupancy
    H0      H    0.33768   0.93953   0.91060   1.000
    H1      H    0.38679   0.06759   0.68122   1.000
    H2      H    0.08528   0.99101   0.89823   1.000
    H3      H    0.14560   0.23355   0.84822   1.000
    H4      H    0.84027   0.55909   0.58789   1.000
    H5      H    0.89005   0.43065   0.81609   1.000
    H6      H    0.58877   0.50764   0.59950   1.000
    H7      H    0.64914   0.26627   0.64996   1.000
    H8      H    0.66280   0.05847   0.08933   1.000
    H9      H    0.61141   0.93051   0.31704   1.000
    H10     H    0.91542   0.00744   0.10233   1.000
    H11     H    0.85514   0.76746   0.15091   1.000
    H12     H    0.16010   0.44233   0.40809   1.000
    H13     H    0.11059   0.57010   0.17957   1.000
    H14     H    0.41167   0.49391   0.39638   1.000
    H15     H    0.35072   0.73517   0.34504   1.000
    C16     C    0.30094   0.96513   0.82632   1.000
    C17     C    0.40138   0.06198   0.77085   1.000
    C18     C    0.15603   0.03638   0.83474   1.000
    C19     C    0.21631   0.15603   0.87118   1.000
    C20     C    0.80302   0.53405   0.67226   1.000
    C21     C    0.90445   0.43682   0.72637   1.000
    C22     C    0.65914   0.46348   0.66286   1.000
    C23     C    0.71972   0.34357   0.62647   1.000
    C24     C    0.69987   0.03459   0.17385   1.000
    C25     C    0.59772   0.93731   0.22732   1.000
    C26     C    0.84336   0.96448   0.16441   1.000
    C27     C    0.78417   0.84464   0.12732   1.000
    C28     C    0.19744   0.46708   0.32369   1.000
    C29     C    0.09592   0.56395   0.26927   1.000
    C30     C    0.34122   0.53781   0.33294   1.000
    C31     C    0.28043   0.65784   0.36901   1.000
    O32     O    0.35187   0.17582   0.81091   1.000
    O33     O    0.85558   0.32351   0.68569   1.000
    O34     O    0.64783   0.82425   0.18618   1.000
    O35     O    0.14427   0.67732   0.31002   1.000
loop_
    _geom_bond_atom_site_label_1
    _geom_bond_atom_site_label_2
    _geom_bond_distance
    _geom_bond_site_symmetry_2
    _ccdc_geom_bond_type
    H8     C24       1.09927      .   S
    H10    C26       1.08856  1_545   S
    C27    H11       1.09927      .   S
    C27    C26       1.54155      .   S
    C27    O34       1.45400      .   S
    C26    C24       1.54164  1_565   S
    C24    C25       1.54093  1_545   S
    H13    C29       1.09841      .   S
    O34    C25       1.46312      .   S
    C25    H9        1.09817      .   S
    C29    O35       1.46148      .   S
    C29    C28       1.53808      .   S
    O35    C31       1.45451      .   S
    C28    C30       1.55013      .   S
    C28    H12       1.09907      .   S
    C30    C31       1.54171      .   S
    C30    H14       1.09596      .   S
    H15    C31       1.09896      .   S
    H4     C20       1.09910      .   S
    H6     C22       1.09598      .   S
    C23    H7        1.09905      .   S
    C23    C22       1.54115      .   S
    C23    O33       1.45417      .   S
    C22    C20       1.55030      .   S
    C20    C21       1.53887      .   S
    H1     C17       1.09826      .   S
    O33    C21       1.46190      .   S
    C21    H5        1.09840      .   S
    C17    O32       1.46382      .   S
    C17    C16       1.53736  1_545   S
    O32    C19       1.45532      .   S
    C16    C18       1.55794  1_565   S
    C16    H0        1.09901      .   S
    C18    C19       1.54047      .   S
    C18    H2        1.10337  1_545   S
    H3     C19       1.09917      .   S
