# CIF file generated by openbabel 2.4.90, see http://openbabel.sf.net
data_I
_chemical_name_common ''
_cell_length_a 9.2075
_cell_length_b 11.1285
_cell_length_c 12.191
_cell_angle_alpha 85.613
_cell_angle_beta 89.858
_cell_angle_gamma 89.891
_space_group_name_H-M_alt 'P 1'
_space_group_name_Hall 'P 1'
loop_
    _symmetry_equiv_pos_as_xyz
    x,y,z
loop_
    _atom_site_label
    _atom_site_type_symbol
    _atom_site_fract_x
    _atom_site_fract_y
    _atom_site_fract_z
    _atom_site_occupancy
    C0      C    0.24531   0.15395   0.99555   1.000
    C1      C    0.56050   0.03752   0.79984   1.000
    C2      C    0.29287   0.85340   0.76092   1.000
    C3      C    0.07024   0.05907   0.72689   1.000
    C4      C    0.74787   0.34570   0.50213   1.000
    C5      C    0.06320   0.46179   0.69655   1.000
    C6      C    0.79482   0.64633   0.73695   1.000
    C7      C    0.57116   0.44060   0.76979   1.000
    C8      C    0.75721   0.84618   0.00283   1.000
    C9      C    0.43897   0.96192   0.19753   1.000
    C10     C    0.70773   0.14805   0.23671   1.000
    C11     C    0.92859   0.94141   0.27242   1.000
    C12     C    0.25272   0.65629   0.49343   1.000
    C13     C    0.93719   0.53855   0.29886   1.000
    C14     C    0.20550   0.35456   0.25940   1.000
    C15     C    0.42907   0.56014   0.22586   1.000
