# CIF file generated by openbabel 2.4.90, see http://openbabel.sf.net
data_I
_chemical_name_common ''
_cell_length_a 9.2075
_cell_length_b 11.1285
_cell_length_c 12.191
_cell_angle_alpha 85.613
_cell_angle_beta 89.858
_cell_angle_gamma 89.891
_space_group_name_H-M_alt 'P 1'
_space_group_name_Hall 'P 1'
loop_
    _symmetry_equiv_pos_as_xyz
    x,y,z
loop_
    _atom_site_label
    _atom_site_type_symbol
    _atom_site_fract_x
    _atom_site_fract_y
    _atom_site_fract_z
    _atom_site_occupancy
    Zr0     Zr   0.18722   0.11975   0.22211   1.000
    Zr1     Zr   0.51431   0.23978   0.92121   1.000
    Zr2     Zr   0.68708   0.38011   0.27700   1.000
    Zr3     Zr   0.01857   0.26046   0.57414   1.000
    Zr4     Zr   0.81334   0.88001   0.77735   1.000
    Zr5     Zr   0.48667   0.76065   0.07451   1.000
    Zr6     Zr   0.31324   0.62049   0.71857   1.000
    Zr7     Zr   0.98120   0.73954   0.42187   1.000
    N8      N    0.23249   0.57172   0.32600   1.000
    O9      O    0.14761   0.64008   0.34597   1.000
    N10     N    0.73530   0.92990   0.17097   1.000
    O11     O    0.65128   0.86118   0.15065   1.000
    N12     N    0.76779   0.42945   0.66968   1.000
    O13     O    0.85243   0.36072   0.64980   1.000
    N14     N    0.26466   0.06967   0.82803   1.000
    O15     O    0.34887   0.13874   0.84704   1.000
    C16     C    0.60091   0.03002   0.80743   1.000
    O17     O    0.65887   0.97488   0.78496   1.000
    O18     O    0.58450   0.09822   0.85273   1.000
    O19     O    0.48685   0.04487   0.80706   1.000
    C20     C    0.24621   0.65604   0.52593   1.000
    O21     O    0.29076   0.63924   0.58162   1.000
    O22     O    0.15054   0.68476   0.50051   1.000
    O23     O    0.24787   0.63522   0.45227   1.000
    C24     C    0.75077   0.84620   0.97019   1.000
    O25     O    0.65555   0.81653   0.99574   1.000
    O26     O    0.75188   0.86693   0.04410   1.000
    O27     O    0.79399   0.86294   0.91434   1.000
    C28     C    0.89733   0.53025   0.30600   1.000
    O29     O    0.91273   0.59835   0.35208   1.000
    O30     O    0.84036   0.47487   0.28343   1.000
    O31     O    0.01092   0.54587   0.30552   1.000
    C32     C    0.04899   0.06953   0.69892   1.000
    O33     O    0.96541   0.00744   0.72203   1.000
    O34     O    0.06073   0.13459   0.65723   1.000
    O35     O    0.11894   0.06411   0.75167   1.000
    C36     C    0.39951   0.97039   0.19111   1.000
    O37     O    0.51317   0.95507   0.19140   1.000
    O38     O    0.34175   0.02560   0.21470   1.000
    O39     O    0.41612   0.90220   0.14452   1.000
    C40     C    0.70830   0.17846   0.25028   1.000
    O41     O    0.71393   0.09454   0.21920   1.000
    O42     O    0.69296   0.24609   0.23955   1.000
    C43     C    0.54898   0.43010   0.79751   1.000
    O44     O    0.55948   0.36501   0.83899   1.000
    O45     O    0.62023   0.43542   0.74525   1.000
    O46     O    0.46533   0.49258   0.77414   1.000
    C47     C    0.95017   0.93093   0.30057   1.000
    O48     O    0.03451   0.99281   0.27764   1.000
    O49     O    0.93825   0.86577   0.34125   1.000
    O50     O    0.88041   0.93617   0.24763   1.000
    C51     C    0.25232   0.15371   0.02806   1.000
    O52     O    0.25003   0.13302   0.95438   1.000
    O53     O    0.34700   0.18356   0.00160   1.000
    O54     O    0.20861   0.13682   0.08445   1.000
    C55     C    0.20608   0.32446   0.24568   1.000
    O56     O    0.21153   0.40787   0.27722   1.000
    O57     O    0.19208   0.25579   0.25729   1.000
    C58     C    0.45114   0.57043   0.19805   1.000
    O59     O    0.53477   0.50789   0.22140   1.000
    O60     O    0.37998   0.56539   0.25037   1.000
    O61     O    0.44089   0.63553   0.15659   1.000
    C62     C    0.79409   0.67634   0.75088   1.000
    O63     O    0.80812   0.74489   0.74009   1.000
    O64     O    0.78872   0.59308   0.71901   1.000
    C65     C    0.75447   0.34609   0.46969   1.000
    O66     O    0.84982   0.31653   0.49525   1.000
    O67     O    0.70996   0.36285   0.41396   1.000
    O68     O    0.75263   0.36657   0.54334   1.000
    C69     C    0.10308   0.47001   0.68937   1.000
    O70     O    0.98945   0.45469   0.68997   1.000
    O71     O    0.08744   0.40183   0.64345   1.000
    O72     O    0.16010   0.52548   0.71198   1.000
    C73     C    0.29216   0.82349   0.74677   1.000
    O74     O    0.28647   0.90648   0.77880   1.000
    O75     O    0.30743   0.75509   0.75681   1.000
loop_
    _geom_bond_atom_site_label_1
    _geom_bond_atom_site_label_2
    _geom_bond_distance
    _geom_bond_site_symmetry_2
    _ccdc_geom_bond_type
    N8     O9        1.12863      .   S
    Zr7    O9        2.13828  1_655   S
    N10    O11       1.13005      .   S
    Zr5    O11       2.14069      .   S
    N12    O13       1.12974      .   S
    Zr3    O13       2.13999  1_455   S
    N14    O15       1.12969      .   S
    Zr1    O15       2.13804      .   S
    C16    O17       0.87190  1_545   S
    Zr4    O17       1.77612      .   S
    C16    O18       0.98340      .   S
    Zr1    O18       1.94705      .   S
    C16    O19       1.06274      .   S
    N14    O19       2.08166      .   S
    C20    O21       0.80363      .   S
    Zr6    O21       1.67982      .   S
    C20    O22       0.97945      .   S
    Zr7    O22       1.90687  1_655   S
    C20    O23       0.94450      .   S
    N8     O23       1.74840      .   S
    C24    O25       0.97912      .   S
    Zr5    O25       1.90565  1_554   S
    C24    O26       0.94720  1_556   S
    N10    O26       1.75233      .   S
    C24    O27       0.79759      .   S
    Zr4    O27       1.67543      .   S
    C28    O29       0.98785      .   S
    Zr7    O29       1.94965      .   S
    C28    O30       0.87098      .   S
    Zr2    O30       1.76883      .   S
    C28    O31       1.06055  1_655   S
    N8     O31       2.07910      .   S
    C32    O33       1.05839  1_455   S
    Zr4    O33       2.06955  1_565   S
    C32    O34       0.85903      .   S
    Zr3    O34       1.70930      .   S
    C32    O35       0.90996      .   S
    N14    O35       1.63881      .   S
    C36    O37       1.05995      .   S
    N10    O37       2.08083      .   S
    C36    O38       0.87641  1_565   S
    Zr0    O38       1.77155      .   S
    C36    O39       0.99350      .   S
    Zr5    O39       1.95722      .   S
    C40    O41       1.03554      .   S
    N10    O41       1.97587  1_565   S
    C40    O42       0.76688      .   S
    Zr2    O42       1.59355      .   S
    C43    O44       0.85659      .   S
    Zr1    O44       1.70473      .   S
    C43    O45       0.91210      .   S
    N12    O45       1.64386      .   S
    C43    O46       1.06142      .   S
    Zr6    O46       2.07261      .   S
    C47    O48       1.06162  1_655   S
    Zr0    O48       2.07059  1_545   S
    C47    O49       0.85364      .   S
    Zr7    O49       1.69834      .   S
    C47    O50       0.91036      .   S
    N10    O50       1.63705      .   S
    C51    O52       0.94448  1_554   S
    N14    O52       1.74712      .   S
    C51    O53       0.97867      .   S
    Zr1    O53       1.90456  1_556   S
    C51    O54       0.80560      .   S
    Zr0    O54       1.68558      .   S
    C55    O56       1.03288      .   S
    N8     O56       1.97070      .   S
    C55    O57       0.77745      .   S
    Zr0    O57       1.60551      .   S
    C58    O59       1.06173      .   S
    Zr2    O59       2.07312      .   S
    C58    O60       0.91214      .   S
    N8     O60       1.64397      .   S
    C58    O61       0.85616      .   S
    Zr5    O61       1.70440      .   S
    C62    O63       0.77509      .   S
    Zr4    O63       1.60457      .   S
    C62    O64       1.03309      .   S
    N12    O64       1.97083      .   S
    C65    O66       0.98010      .   S
    Zr3    O66       1.90801  1_455   S
    C65    O67       0.80378      .   S
    Zr2    O67       1.67973      .   S
    C65    O68       0.94318      .   S
    N12    O68       1.74580      .   S
    C69    O70       1.06033  1_455   S
    N12    O70       2.07859      .   S
    C69    O71       0.98771      .   S
    Zr3    O71       1.94962      .   S
    C69    O72       0.87215      .   S
    Zr6    O72       1.76968      .   S
    C73    O74       1.03098      .   S
    N14    O74       1.96552  1_545   S
    C73    O75       0.77439      .   S
    Zr6    O75       1.60324      .   S
