# CIF file generated by openbabel 2.4.90, see http://openbabel.sf.net
data_I
_chemical_name_common ''
_cell_length_a 6.254
_cell_length_b 15.845
_cell_length_c 16.644
_cell_angle_alpha 104.357
_cell_angle_beta 90.128
_cell_angle_gamma 101.256
_space_group_name_H-M_alt 'P 1'
_space_group_name_Hall 'P 1'
loop_
    _symmetry_equiv_pos_as_xyz
    x,y,z
loop_
    _atom_site_label
    _atom_site_type_symbol
    _atom_site_fract_x
    _atom_site_fract_y
    _atom_site_fract_z
    _atom_site_occupancy
    C0      C    0.38924   0.99986   0.24966   1.000
    C1      C    0.61072   0.00015   0.75032   1.000
    C2      C    0.98090   0.18701   0.37607   1.000
    C3      C    0.85502   0.32219   0.44869   1.000
    C4      C    0.47256   0.48182   0.41169   1.000
    C5      C    0.59720   0.34372   0.33923   1.000
    C6      C    0.21533   0.55572   0.48109   1.000
    C7      C    0.82730   0.10775   0.23012   1.000
    C8      C    0.11173   0.10812   0.12863   1.000
    C9      C    0.66967   0.89151   0.95921   1.000
    C10     C    0.40859   0.89832   0.07004   1.000
    C11     C    0.79295   0.81293   0.12370   1.000
    C12     C    0.53188   0.67787   0.05151   1.000
    C13     C    0.99155   0.51798   0.08829   1.000
    C14     C    0.25463   0.65599   0.16013   1.000
    C15     C    0.65983   0.44417   0.01919   1.000
    C16     C    0.72020   0.89169   0.26956   1.000
    C17     C    0.00457   0.89163   0.37161   1.000
    C18     C    0.77679   0.10827   0.54021   1.000
    C19     C    0.50841   0.10103   0.42889   1.000
    C20     C    0.01906   0.81298   0.62391   1.000
    C21     C    0.14493   0.67780   0.55129   1.000
    C22     C    0.52741   0.51817   0.58830   1.000
    C23     C    0.40276   0.65627   0.66075   1.000
    C24     C    0.78463   0.44427   0.51890   1.000
    C25     C    0.17265   0.89225   0.76986   1.000
    C26     C    0.88823   0.89187   0.87134   1.000
    C27     C    0.33029   0.10847   0.04077   1.000
    C28     C    0.59136   0.10167   0.92993   1.000
    C29     C    0.20701   0.18706   0.87627   1.000
    C30     C    0.46809   0.32212   0.94847   1.000
    C31     C    0.00842   0.48201   0.91169   1.000
    C32     C    0.74534   0.34400   0.83985   1.000
    C33     C    0.34015   0.55582   0.98078   1.000
    C34     C    0.27982   0.10832   0.73040   1.000
    C35     C    0.99544   0.10839   0.62836   1.000
    C36     C    0.22309   0.89170   0.45978   1.000
    C37     C    0.49149   0.89894   0.57109   1.000
    C38     C    0.38062   0.17484   0.31197   1.000
    C39     C    0.29868   0.25648   0.35401   1.000
    C40     C    0.08910   0.25168   0.38503   1.000
    C41     C    0.01930   0.32826   0.42613   1.000
    C42     C    0.15617   0.41295   0.43736   1.000
    C43     C    0.36487   0.41700   0.40443   1.000
    C44     C    0.43544   0.34032   0.36395   1.000
    C45     C    0.09377   0.49571   0.48057   1.000
    C46     C    0.80094   0.06052   0.16953   1.000
    C47     C    0.95839   0.06051   0.11089   1.000
    C48     C    0.91835   0.00039   0.03228   1.000
    C49     C    0.71518   0.94084   0.01806   1.000
    C50     C    0.56618   0.94412   0.07980   1.000
    C51     C    0.20636   0.82505   0.18693   1.000
    C52     C    0.04250   0.74340   0.14544   1.000
    C53     C    0.83696   0.74824   0.11475   1.000
    C54     C    0.69052   0.67169   0.07386   1.000
    C55     C    0.74317   0.58695   0.06266   1.000
    C56     C    0.94835   0.58283   0.09545   1.000
    C57     C    0.09578   0.65949   0.13564   1.000
    C58     C    0.59811   0.50423   0.01950   1.000
    C59     C    0.74064   0.93895   0.33014   1.000
    C60     C    0.89830   0.93919   0.38905   1.000
    C61     C    0.91780   0.99947   0.46757   1.000
    C62     C    0.77342   0.05889   0.48146   1.000
    C63     C    0.62100   0.05540   0.41947   1.000
    C64     C    0.61934   0.82515   0.68800   1.000
    C65     C    0.70128   0.74351   0.64598   1.000
    C66     C    0.91086   0.74831   0.61495   1.000
    C67     C    0.98066   0.67173   0.57386   1.000
    C68     C    0.84379   0.58704   0.56263   1.000
    C69     C    0.63509   0.58298   0.59555   1.000
    C70     C    0.56452   0.65966   0.63604   1.000
    C71     C    0.90620   0.50428   0.51943   1.000
    C72     C    0.19903   0.93946   0.83045   1.000
    C73     C    0.04156   0.93949   0.88908   1.000
    C74     C    0.08160   0.99962   0.96770   1.000
    C75     C    0.28477   0.05915   0.98191   1.000
    C76     C    0.43378   0.05587   0.92019   1.000
    C77     C    0.79360   0.17494   0.81306   1.000
    C78     C    0.95748   0.25660   0.85454   1.000
    C79     C    0.16302   0.25175   0.88521   1.000
    C80     C    0.30945   0.32830   0.92611   1.000
    C81     C    0.25681   0.41304   0.93731   1.000
    C82     C    0.05161   0.41716   0.90453   1.000
    C83     C    0.90420   0.34050   0.86434   1.000
    C84     C    0.40186   0.49576   0.98047   1.000
    C85     C    0.25933   0.06105   0.66984   1.000
    C86     C    0.10169   0.06082   0.61092   1.000
    C87     C    0.08213   0.00054   0.53241   1.000
    C88     C    0.22650   0.94108   0.51853   1.000
    C89     C    0.37892   0.94458   0.58052   1.000
    C90     C    0.60593   0.00354   0.15457   1.000
    C91     C    0.60209   0.99590   0.34477   1.000
    C92     C    0.39402   0.99646   0.84540   1.000
    C93     C    0.39788   0.00409   0.65521   1.000
    C94     C    0.24042   0.09910   0.29883   1.000
    C95     C    0.57496   0.18076   0.29235   1.000
    C96     C    0.14041   0.90068   0.20125   1.000
    C97     C    0.39647   0.81923   0.20487   1.000
    C98     C    0.75955   0.90088   0.70115   1.000
    C99     C    0.42500   0.81922   0.70763   1.000
    C100    C    0.85956   0.09931   0.79873   1.000
    C101    C    0.60349   0.18076   0.79512   1.000
    O102    O    0.81677   0.97062   0.02517   1.000
    O103    O    0.64068   0.94248   0.04893   1.000
    O104    O    0.69243   0.91618   0.98864   1.000
    O105    O    0.62897   0.47420   0.01935   1.000
    O106    O    0.67064   0.54559   0.04108   1.000
    O107    O    0.49999   0.49999   0.99999   1.000
    O108    O    0.93837   0.03045   0.07159   1.000
    O109    O    0.99998   0.00000   0.99999   1.000
    O110    O    0.30753   0.08381   0.01134   1.000
    O111    O    0.61120   0.67478   0.06268   1.000
    O112    O    0.71684   0.62932   0.06826   1.000
    O113    O    0.84576   0.58489   0.07905   1.000
    O114    O    0.48739   0.92122   0.07492   1.000
    O115    O    0.76374   0.70997   0.09431   1.000
    O116    O    0.58605   0.97383   0.11718   1.000
    O117    O    0.96995   0.55040   0.09187   1.000
    O118    O    0.02206   0.62116   0.11554   1.000
    O119    O    0.03506   0.08431   0.11976   1.000
    O120    O    0.87967   0.06051   0.14021   1.000
    O121    O    0.81496   0.78058   0.11922   1.000
    O122    O    0.93973   0.74582   0.13009   1.000
    O123    O    0.06914   0.70144   0.14054   1.000
    O124    O    0.17520   0.65774   0.14788   1.000
    O125    O    0.12443   0.78422   0.16618   1.000
    O126    O    0.70343   0.03203   0.16205   1.000
    O127    O    0.49758   0.00170   0.20212   1.000
    O128    O    0.81412   0.08413   0.19982   1.000
    O129    O    0.17338   0.86287   0.19409   1.000
    O130    O    0.30142   0.82214   0.19590   1.000
    O131    O    0.26482   0.95027   0.22545   1.000
    O132    O    0.31483   0.04948   0.27425   1.000
    O133    O    0.49566   0.99788   0.29722   1.000
    O134    O    0.73042   0.91532   0.29985   1.000
    O135    O    0.47779   0.17780   0.30216   1.000
    O136    O    0.31052   0.13697   0.30540   1.000
    O137    O    0.33965   0.21566   0.33299   1.000
    O138    O    0.67136   0.96743   0.33745   1.000
    O139    O    0.81947   0.93907   0.35959   1.000
    O140    O    0.51632   0.34202   0.35159   1.000
    O141    O    0.61154   0.02565   0.38212   1.000
    O142    O    0.36706   0.29840   0.35898   1.000
    O143    O    0.19389   0.25408   0.36952   1.000
    O144    O    0.40015   0.37866   0.38419   1.000
    O145    O    0.95144   0.91541   0.38033   1.000
    O146    O    0.03500   0.21934   0.38055   1.000
    O147    O    0.05420   0.28997   0.40558   1.000
    O148    O    0.90805   0.96933   0.42831   1.000
    O149    O    0.41871   0.44941   0.40806   1.000
    O150    O    0.26052   0.41498   0.42090   1.000
    O151    O    0.56470   0.07821   0.42418   1.000
    O152    O    0.69721   0.05714   0.45046   1.000
    O153    O    0.08774   0.37061   0.43174   1.000
    O154    O    0.93716   0.32522   0.43741   1.000
    O155    O    0.12497   0.45433   0.45896   1.000
    O156    O    0.22479   0.91639   0.48915   1.000
    O157    O    0.84561   0.02918   0.47451   1.000
    O158    O    0.99997   0.00000   0.49999   1.000
    O159    O    0.15455   0.52571   0.48083   1.000
    O160    O    0.99998   0.49999   0.50000   1.000
    O161    O    0.77511   0.08358   0.51083   1.000
    O162    O    0.15431   0.97081   0.52547   1.000
    O163    O    0.30271   0.94283   0.54952   1.000
    O164    O    0.84541   0.47427   0.51916   1.000
    O165    O    0.87499   0.54566   0.54103   1.000
    O166    O    0.09191   0.03068   0.57167   1.000
    O167    O    0.06279   0.67476   0.56258   1.000
    O168    O    0.91222   0.62938   0.56825   1.000
    O169    O    0.73944   0.58501   0.57909   1.000
    O170    O    0.43520   0.92176   0.57581   1.000
    O171    O    0.94576   0.71002   0.59441   1.000
    O172    O    0.38840   0.97434   0.61786   1.000
    O173    O    0.58125   0.55058   0.59193   1.000
    O174    O    0.59981   0.62132   0.61580   1.000
    O175    O    0.04856   0.08461   0.61964   1.000
    O176    O    0.18051   0.06093   0.64038   1.000
    O177    O    0.96496   0.78065   0.61943   1.000
    O178    O    0.80607   0.74591   0.63047   1.000
    O179    O    0.63290   0.70159   0.64101   1.000
    O180    O    0.48364   0.65797   0.64839   1.000
    O181    O    0.66031   0.78433   0.66699   1.000
    O182    O    0.32861   0.03257   0.66252   1.000
    O183    O    0.50430   0.00212   0.70276   1.000
    O184    O    0.26957   0.08469   0.70012   1.000
    O185    O    0.68944   0.86302   0.69458   1.000
    O186    O    0.52217   0.82219   0.69782   1.000
    O187    O    0.68513   0.95052   0.72573   1.000
    O188    O    0.73514   0.04973   0.77453   1.000
    O189    O    0.50237   0.99830   0.79786   1.000
    O190    O    0.18584   0.91586   0.80015   1.000
    O191    O    0.69855   0.17785   0.80409   1.000
    O192    O    0.82658   0.13712   0.80590   1.000
    O193    O    0.87554   0.21577   0.83380   1.000
    O194    O    0.29652   0.96796   0.83793   1.000
    O195    O    0.12029   0.93948   0.85977   1.000
    O196    O    0.82477   0.34225   0.85209   1.000
    O197    O    0.41390   0.02616   0.88279   1.000
    O198    O    0.93084   0.29855   0.85944   1.000
    O199    O    0.06025   0.25417   0.86987   1.000
    O200    O    0.97791   0.37883   0.88443   1.000
    O201    O    0.96489   0.91568   0.88021   1.000
    O202    O    0.18502   0.21940   0.88074   1.000
    O203    O    0.23624   0.29002   0.90566   1.000
    O204    O    0.06158   0.96955   0.92839   1.000
    O205    O    0.03002   0.44959   0.90811   1.000
    O206    O    0.15421   0.41510   0.92092   1.000
    O207    O    0.51257   0.07877   0.92506   1.000
    O208    O    0.35928   0.05751   0.95105   1.000
    O209    O    0.28313   0.37067   0.93171   1.000
    O210    O    0.38877   0.32521   0.93729   1.000
    O211    O    0.32934   0.45440   0.95889   1.000
    O212    O    0.18319   0.02939   0.97481   1.000
    O213    O    0.37101   0.52579   0.98063   1.000
loop_
    _geom_bond_atom_site_label_1
    _geom_bond_atom_site_label_2
    _geom_bond_distance
    _geom_bond_site_symmetry_2
    _ccdc_geom_bond_type
    C49    O102      0.70370      .   S
    C48    O102      0.70370  1_545   S
    C49    O103      0.69346      .   S
    C50    O103      0.69346      .   S
    C49    O104      0.54393  1_554   S
    C9     O104      0.54393      .   S
    C15    O105      0.54676      .   S
    C58    O105      0.54676      .   S
    C58    O106      0.72849      .   S
    C55    O106      0.72849      .   S
    C58    O107      0.67734  1_554   S
    C84    O107      0.67734      .   S
    C48    O108      0.70166      .   S
    C47    O108      0.70166      .   S
    C48    O109      0.74184  1_554   S
    C74    O109      0.74184  1_465   S
    C27    O110      0.54393      .   S
    C75    O110      0.54393  1_556   S
    C12    O111      0.54468      .   S
    C54    O111      0.54468      .   S
    C55    O112      0.70618      .   S
    C54    O112      0.70618      .   S
    C55    O113      0.70641      .   S
    C56    O113      0.70641      .   S
    C10    O114      0.54450      .   S
    C50    O114      0.54450      .   S
    C54    O115      0.69416      .   S
    C53    O115      0.69416      .   S
    C50    O116      0.67516      .   S
    C90    O116      0.67516  1_545   S
    C13    O117      0.54565      .   S
    C56    O117      0.54565      .   S
    C56    O118      0.69461  1_655   S
    C57    O118      0.69461      .   S
    C47    O119      0.54356  1_655   S
    C8     O119      0.54356      .   S
    C47    O120      0.69396      .   S
    C46    O120      0.69396      .   S
    C53    O121      0.54384      .   S
    C11    O121      0.54384      .   S
    C53    O122      0.70251      .   S
    C52    O122      0.70251  1_455   S
    C57    O123      0.70195      .   S
    C52    O123      0.70195      .   S
    C57    O124      0.54477      .   S
    C14    O124      0.54477      .   S
    C52    O125      0.74785      .   S
    C51    O125      0.74785      .   S
    C90    O126      0.67490      .   S
    C46    O126      0.67490      .   S
    C90    O127      1.04514      .   S
    C0     O127      1.04514  1_565   S
    C46    O128      0.54334      .   S
    C7     O128      0.54334      .   S
    C51    O129      0.65481      .   S
    C96    O129      0.65481      .   S
    C51    O130      0.62571      .   S
    C97    O130      0.62571      .   S
    C96    O131      0.99402      .   S
    C0     O131      0.99402      .   S
    C0     O132      0.99315  1_565   S
    C94    O132      0.99315      .   S
    C0     O133      1.04329      .   S
    C91    O133      1.04329      .   S
    C16    O134      0.54341      .   S
    C59    O134      0.54341      .   S
    C95    O135      0.62552      .   S
    C38    O135      0.62552      .   S
    C94    O136      0.65476      .   S
    C38    O136      0.65476      .   S
    C38    O137      0.74783      .   S
    C39    O137      0.74783      .   S
    C59    O138      0.67486      .   S
    C91    O138      0.67486      .   S
    C59    O139      0.69395      .   S
    C60    O139      0.69395      .   S
    C5     O140      0.54477      .   S
    C44    O140      0.54477      .   S
    C91    O141      0.67511  1_565   S
    C63    O141      0.67511      .   S
    C39    O142      0.70192      .   S
    C44    O142      0.70192      .   S
    C39    O143      0.70249      .   S
    C40    O143      0.70249      .   S
    C44    O144      0.69456      .   S
    C43    O144      0.69456      .   S
    C17    O145      0.54356  1_455   S
    C60    O145      0.54356      .   S
    C2     O146      0.54389  1_655   S
    C40    O146      0.54389      .   S
    C40    O147      0.69415      .   S
    C41    O147      0.69415      .   S
    C60    O148      0.70175      .   S
    C61    O148      0.70175      .   S
    C43    O149      0.54565      .   S
    C4     O149      0.54565      .   S
    C43    O150      0.70637      .   S
    C42    O150      0.70637      .   S
    C63    O151      0.54456      .   S
    C19    O151      0.54456      .   S
    C63    O152      0.69332      .   S
    C62    O152      0.69332      .   S
    C41    O153      0.70621      .   S
    C42    O153      0.70621      .   S
    C41    O154      0.54473  1_455   S
    C3     O154      0.54473      .   S
    C42    O155      0.72843      .   S
    C45    O155      0.72843      .   S
    C36    O156      0.54382      .   S
    C88    O156      0.54382      .   S
    C61    O157      0.70360  1_565   S
    C62    O157      0.70360      .   S
    C61    O158      0.74168  1_565   S
    C87    O158      0.74168  1_455   S
    C45    O159      0.54675      .   S
    C6     O159      0.54675      .   S
    C45    O160      0.67726  1_455   S
    C71    O160      0.67726      .   S
    C62    O161      0.54381      .   S
    C18    O161      0.54381      .   S
    C88    O162      0.70377      .   S
    C87    O162      0.70377  1_545   S
    C88    O163      0.69334      .   S
    C89    O163      0.69334      .   S
    C24    O164      0.54676      .   S
    C71    O164      0.54676      .   S
    C71    O165      0.72844      .   S
    C68    O165      0.72844      .   S
    C87    O166      0.70167      .   S
    C86    O166      0.70167      .   S
    C21    O167      0.54472      .   S
    C67    O167      0.54472  1_655   S
    C68    O168      0.70621      .   S
    C67    O168      0.70621      .   S
    C68    O169      0.70638      .   S
    C69    O169      0.70638      .   S
    C37    O170      0.54455      .   S
    C89    O170      0.54455      .   S
    C67    O171      0.69415      .   S
    C66    O171      0.69415      .   S
    C89    O172      0.67510      .   S
    C93    O172      0.67510  1_545   S
    C22    O173      0.54564      .   S
    C69    O173      0.54564      .   S
    C69    O174      0.69457      .   S
    C70    O174      0.69457      .   S
    C86    O175      0.54357      .   S
    C35    O175      0.54357  1_655   S
    C86    O176      0.69394      .   S
    C85    O176      0.69394      .   S
    C66    O177      0.54389      .   S
    C20    O177      0.54389  1_455   S
    C66    O178      0.70249      .   S
    C65    O178      0.70249      .   S
    C70    O179      0.70191      .   S
    C65    O179      0.70191      .   S
    C70    O180      0.54477      .   S
    C23    O180      0.54477      .   S
    C65    O181      0.74783      .   S
    C64    O181      0.74783      .   S
    C93    O182      0.67488      .   S
    C85    O182      0.67488      .   S
    C93    O183      1.04328      .   S
    C1     O183      1.04328      .   S
    C85    O184      0.54342      .   S
    C34    O184      0.54342      .   S
    C64    O185      0.65476      .   S
    C98    O185      0.65476      .   S
    C64    O186      0.62552      .   S
    C99    O186      0.62552      .   S
    C98    O187      0.99327      .   S
    C1     O187      0.99327  1_545   S
    C1     O188      0.99397      .   S
    C100   O188      0.99397      .   S
    C1     O189      1.04513  1_545   S
    C92    O189      1.04513      .   S
    C25    O190      0.54335      .   S
    C72    O190      0.54335      .   S
    C101   O191      0.62572      .   S
    C77    O191      0.62572      .   S
    C100   O192      0.65481      .   S
    C77    O192      0.65481      .   S
    C77    O193      0.74785      .   S
    C78    O193      0.74785      .   S
    C72    O194      0.67489      .   S
    C92    O194      0.67489      .   S
    C72    O195      0.69397      .   S
    C73    O195      0.69397      .   S
    C32    O196      0.54477      .   S
    C83    O196      0.54477      .   S
    C92    O197      0.67516  1_565   S
    C76    O197      0.67516      .   S
    C78    O198      0.70195      .   S
    C83    O198      0.70195      .   S
    C78    O199      0.70249  1_655   S
    C79    O199      0.70249      .   S
    C83    O200      0.69460      .   S
    C82    O200      0.69460  1_455   S
    C26    O201      0.54356      .   S
    C73    O201      0.54356  1_455   S
    C29    O202      0.54384      .   S
    C79    O202      0.54384      .   S
    C79    O203      0.69415      .   S
    C80    O203      0.69415      .   S
    C73    O204      0.70174      .   S
    C74    O204      0.70174      .   S
    C82    O205      0.54564      .   S
    C31    O205      0.54564      .   S
    C82    O206      0.70641      .   S
    C81    O206      0.70641      .   S
    C76    O207      0.54450      .   S
    C28    O207      0.54450      .   S
    C76    O208      0.69345      .   S
    C75    O208      0.69345      .   S
    C80    O209      0.70618      .   S
    C81    O209      0.70618      .   S
    C80    O210      0.54468      .   S
    C30    O210      0.54468      .   S
    C81    O211      0.72849      .   S
    C84    O211      0.72849      .   S
    C74    O212      0.70364  1_565   S
    C75    O212      0.70364      .   S
    C84    O213      0.54676      .   S
    C33    O213      0.54676      .   S
