# CIF file generated by openbabel 2.4.90, see http://openbabel.sf.net
data_I
_chemical_name_common 'VESTA_phase_1'
_cell_length_a 15.23
_cell_length_b 17.848
_cell_length_c 17.848
_cell_angle_alpha 90
_cell_angle_beta 90
_cell_angle_gamma 89.999
_space_group_name_H-M_alt 'P 1'
_space_group_name_Hall 'P 1'
loop_
    _symmetry_equiv_pos_as_xyz
    x,y,z
loop_
    _atom_site_label
    _atom_site_type_symbol
    _atom_site_fract_x
    _atom_site_fract_y
    _atom_site_fract_z
    _atom_site_occupancy
    Zn0     Zn   0.87161   0.75000   0.75000   1.000
    Zn1     Zn   0.37160   0.75001   0.75000   1.000
    Zn2     Zn   0.62841   0.25000   0.25000   1.000
    Zn3     Zn   0.12840   0.25000   0.25000   1.000
    Si4     Si   0.62215   0.75000   0.75000   1.000
    Si5     Si   0.12214   0.75000   0.75000   1.000
    Si6     Si   0.87787   0.25000   0.25000   1.000
    Si7     Si   0.37786   0.25000   0.25000   1.000
    H8      H    0.75572   0.81826   0.87222   1.000
    H9      H    0.75568   0.83422   0.01161   1.000
    H10     H    0.99303   0.70227   0.01881   1.000
    H11     H    0.98906   0.69800   0.87853   1.000
    H12     H    0.87955   0.65515   0.12610   1.000
    H13     H    0.87307   0.90601   0.24931   1.000
    H14     H    0.86953   0.89585   0.11067   1.000
    H15     H    0.75572   0.68175   0.62778   1.000
    H16     H    0.75568   0.66579   0.48838   1.000
    H17     H    0.99303   0.79773   0.48118   1.000
    H18     H    0.98905   0.80201   0.62147   1.000
    H19     H    0.87953   0.84486   0.37383   1.000
    H20     H    0.87309   0.59400   0.25068   1.000
    H21     H    0.86954   0.60416   0.38932   1.000
    H22     H    0.75572   0.62778   0.81825   1.000
    H23     H    0.75568   0.48838   0.83422   1.000
    H24     H    0.99304   0.48118   0.70227   1.000
    H25     H    0.98906   0.62147   0.69799   1.000
    H26     H    0.87954   0.37383   0.65514   1.000
    H27     H    0.87309   0.25069   0.90601   1.000
    H28     H    0.86954   0.38933   0.89584   1.000
    H29     H    0.75572   0.87223   0.68175   1.000
    H30     H    0.75569   0.01162   0.66578   1.000
    H31     H    0.99304   0.01882   0.79773   1.000
    H32     H    0.98905   0.87853   0.80201   1.000
    H33     H    0.87955   0.12617   0.84486   1.000
    H34     H    0.87308   0.24932   0.59399   1.000
    H35     H    0.86954   0.11067   0.60416   1.000
    H36     H    0.25571   0.81826   0.62778   1.000
    H37     H    0.25567   0.83422   0.48838   1.000
    H38     H    0.49303   0.70227   0.48118   1.000
    H39     H    0.48905   0.69800   0.62147   1.000
    H40     H    0.37953   0.65515   0.37383   1.000
    H41     H    0.37307   0.90601   0.25068   1.000
    H42     H    0.36953   0.89585   0.38933   1.000
    H43     H    0.25571   0.68175   0.87222   1.000
    H44     H    0.25567   0.66579   0.01160   1.000
    H45     H    0.49303   0.79773   0.01881   1.000
    H46     H    0.48905   0.80201   0.87853   1.000
    H47     H    0.37953   0.84486   0.12617   1.000
    H48     H    0.37307   0.59400   0.24931   1.000
    H49     H    0.36953   0.60416   0.11067   1.000
    H50     H    0.25571   0.62778   0.68175   1.000
    H51     H    0.25567   0.48838   0.66578   1.000
    H52     H    0.49303   0.48118   0.79773   1.000
    H53     H    0.48905   0.62147   0.80201   1.000
    H54     H    0.37953   0.37383   0.84486   1.000
    H55     H    0.37308   0.25069   0.59399   1.000
    H56     H    0.36953   0.38933   0.60416   1.000
    H57     H    0.25571   0.87223   0.81820   1.000
    H58     H    0.25568   0.01162   0.83422   1.000
    H59     H    0.49303   0.01882   0.70227   1.000
    H60     H    0.48905   0.87854   0.69000   1.000
    H61     H    0.37954   0.12617   0.65514   1.000
    H62     H    0.37307   0.24932   0.90601   1.000
    H63     H    0.36954   0.11067   0.89580   1.000
    H64     H    0.74430   0.18175   0.37222   1.000
    H65     H    0.74434   0.16578   0.51162   1.000
    H66     H    0.50698   0.29773   0.51882   1.000
    H67     H    0.51096   0.30201   0.37853   1.000
    H68     H    0.62048   0.34486   0.62617   1.000
    H69     H    0.62694   0.09399   0.74931   1.000
    H70     H    0.63048   0.10416   0.61067   1.000
    H71     H    0.74430   0.31825   0.12777   1.000
    H72     H    0.74433   0.33422   0.98838   1.000
    H73     H    0.50698   0.20227   0.98118   1.000
    H74     H    0.51096   0.19799   0.12140   1.000
    H75     H    0.62048   0.15514   0.87383   1.000
    H76     H    0.62694   0.40601   0.75060   1.000
    H77     H    0.63048   0.39585   0.88933   1.000
    H78     H    0.74430   0.37222   0.31825   1.000
    H79     H    0.74433   0.51162   0.33421   1.000
    H80     H    0.50698   0.51882   0.20227   1.000
    H81     H    0.51096   0.37853   0.19799   1.000
    H82     H    0.62047   0.62617   0.15514   1.000
    H83     H    0.62694   0.74932   0.40600   1.000
    H84     H    0.63048   0.61067   0.39584   1.000
    H85     H    0.74430   0.12778   0.18174   1.000
    H86     H    0.74433   0.98838   0.16578   1.000
    H87     H    0.50698   0.98119   0.29773   1.000
    H88     H    0.51096   0.12147   0.30200   1.000
    H89     H    0.62048   0.87384   0.34480   1.000
    H90     H    0.62693   0.75069   0.09399   1.000
    H91     H    0.63047   0.88933   0.10415   1.000
    H92     H    0.24429   0.18175   0.12777   1.000
    H93     H    0.24433   0.16578   0.98838   1.000
    H94     H    0.00697   0.29773   0.98118   1.000
    H95     H    0.01095   0.30201   0.12140   1.000
    H96     H    0.12047   0.34486   0.87383   1.000
    H97     H    0.12693   0.09399   0.75060   1.000
    H98     H    0.13048   0.10416   0.88933   1.000
    H99     H    0.24429   0.31825   0.37222   1.000
    H100    H    0.24433   0.33422   0.51162   1.000
    H101    H    0.00698   0.20227   0.51882   1.000
    H102    H    0.01096   0.19799   0.37853   1.000
    H103    H    0.12047   0.15514   0.62617   1.000
    H104    H    0.12693   0.40601   0.74931   1.000
    H105    H    0.13047   0.39584   0.61067   1.000
    H106    H    0.24429   0.37222   0.18174   1.000
    H107    H    0.24432   0.51162   0.16578   1.000
    H108    H    0.00697   0.51882   0.29773   1.000
    H109    H    0.01095   0.37853   0.30200   1.000
    H110    H    0.12046   0.62617   0.34480   1.000
    H111    H    0.12693   0.74932   0.09399   1.000
    H112    H    0.13047   0.61067   0.10415   1.000
    H113    H    0.24429   0.12778   0.31825   1.000
    H114    H    0.24432   0.98838   0.33421   1.000
    H115    H    0.00697   0.98119   0.20227   1.000
    H116    H    0.01096   0.12147   0.19799   1.000
    H117    H    0.12047   0.87383   0.15514   1.000
    H118    H    0.12693   0.75069   0.40600   1.000
    H119    H    0.13047   0.88933   0.39584   1.000
    C120    C    0.80848   0.79541   0.90680   1.000
    C121    C    0.80844   0.80334   0.98429   1.000
    C122    C    0.87456   0.76904   0.02695   1.000
    C123    C    0.93962   0.72904   0.98829   1.000
    C124    C    0.93734   0.72575   0.91051   1.000
    C125    C    0.87542   0.77434   0.10961   1.000
    C126    C    0.87848   0.71007   0.15305   1.000
    C127    C    0.87716   0.71396   0.23220   1.000
    C128    C    0.87423   0.85120   0.22221   1.000
    C129    C    0.87201   0.84554   0.14534   1.000
    C130    C    0.80847   0.70461   0.59319   1.000
    C131    C    0.80845   0.69666   0.51571   1.000
    C132    C    0.87456   0.73097   0.47304   1.000
    C133    C    0.93962   0.77096   0.51170   1.000
    C134    C    0.93734   0.77427   0.58949   1.000
    C135    C    0.87539   0.72567   0.39038   1.000
    C136    C    0.87850   0.78994   0.34694   1.000
    C137    C    0.87710   0.78605   0.26778   1.000
    C138    C    0.87422   0.64881   0.27778   1.000
    C139    C    0.87203   0.65447   0.35465   1.000
    C140    C    0.80847   0.59320   0.79540   1.000
    C141    C    0.80845   0.51572   0.80334   1.000
    C142    C    0.87456   0.47305   0.76903   1.000
    C143    C    0.93963   0.51171   0.72905   1.000
    C144    C    0.93734   0.58949   0.72573   1.000
    C145    C    0.87540   0.39038   0.77433   1.000
    C146    C    0.87850   0.34695   0.71006   1.000
    C147    C    0.87711   0.26778   0.71390   1.000
    C148    C    0.87422   0.27778   0.85100   1.000
    C149    C    0.87203   0.35466   0.84553   1.000
    C150    C    0.80847   0.90681   0.70459   1.000
    C151    C    0.80844   0.98429   0.69666   1.000
    C152    C    0.87457   0.02695   0.73097   1.000
    C153    C    0.93962   0.98830   0.77096   1.000
    C154    C    0.93734   0.91051   0.77426   1.000
    C155    C    0.87542   0.10962   0.72567   1.000
    C156    C    0.87848   0.15305   0.78994   1.000
    C157    C    0.87716   0.23222   0.78605   1.000
    C158    C    0.87424   0.22222   0.64880   1.000
    C159    C    0.87202   0.14534   0.65447   1.000
    C160    C    0.30847   0.79541   0.59320   1.000
    C161    C    0.30843   0.80334   0.51571   1.000
    C162    C    0.37455   0.76904   0.47304   1.000
    C163    C    0.43961   0.72905   0.51171   1.000
    C164    C    0.43733   0.72575   0.58949   1.000
    C165    C    0.37540   0.77434   0.39038   1.000
    C166    C    0.37848   0.71007   0.34695   1.000
    C167    C    0.37712   0.71396   0.26778   1.000
    C168    C    0.37422   0.85120   0.27778   1.000
    C169    C    0.37201   0.84554   0.35465   1.000
    C170    C    0.30846   0.70461   0.90680   1.000
    C171    C    0.30844   0.69666   0.98429   1.000
    C172    C    0.37455   0.73097   0.02695   1.000
    C173    C    0.43962   0.77096   0.98829   1.000
    C174    C    0.43733   0.77427   0.91051   1.000
    C175    C    0.37540   0.72567   0.10962   1.000
    C176    C    0.37848   0.78994   0.15305   1.000
    C177    C    0.37712   0.78605   0.23222   1.000
    C178    C    0.37422   0.64881   0.22221   1.000
    C179    C    0.37201   0.65447   0.14534   1.000
    C180    C    0.30847   0.59320   0.70459   1.000
    C181    C    0.30843   0.51572   0.69667   1.000
    C182    C    0.37456   0.47305   0.73097   1.000
    C183    C    0.43961   0.51171   0.77097   1.000
    C184    C    0.43734   0.58950   0.77425   1.000
    C185    C    0.37540   0.39038   0.72567   1.000
    C186    C    0.37849   0.34695   0.78994   1.000
    C187    C    0.37712   0.26778   0.78605   1.000
    C188    C    0.37422   0.27778   0.64881   1.000
    C189    C    0.37202   0.35466   0.65447   1.000
    C190    C    0.30846   0.90681   0.79500   1.000
    C191    C    0.30844   0.98429   0.80335   1.000
    C192    C    0.37456   0.02696   0.76903   1.000
    C193    C    0.43962   0.98830   0.72905   1.000
    C194    C    0.43733   0.91052   0.72573   1.000
    C195    C    0.37541   0.10962   0.77433   1.000
    C196    C    0.37848   0.15306   0.71006   1.000
    C197    C    0.37713   0.23222   0.71396   1.000
    C198    C    0.37422   0.22222   0.85120   1.000
    C199    C    0.37201   0.14534   0.84553   1.000
    C200    C    0.69154   0.20460   0.40680   1.000
    C201    C    0.69158   0.19667   0.48428   1.000
    C202    C    0.62545   0.23097   0.52695   1.000
    C203    C    0.56040   0.27096   0.48829   1.000
    C204    C    0.56268   0.27426   0.41050   1.000
    C205    C    0.62461   0.22567   0.60962   1.000
    C206    C    0.62153   0.28994   0.65305   1.000
    C207    C    0.62289   0.28605   0.73222   1.000
    C208    C    0.62579   0.14881   0.72222   1.000
    C209    C    0.62800   0.15447   0.64534   1.000
    C210    C    0.69155   0.29540   0.09319   1.000
    C211    C    0.69157   0.30334   0.01571   1.000
    C212    C    0.62546   0.26903   0.97300   1.000
    C213    C    0.56039   0.22905   0.01170   1.000
    C214    C    0.56268   0.22574   0.08949   1.000
    C215    C    0.62461   0.27433   0.89038   1.000
    C216    C    0.62153   0.21006   0.84695   1.000
    C217    C    0.62289   0.21396   0.76778   1.000
    C218    C    0.62579   0.35120   0.77778   1.000
    C219    C    0.62800   0.34553   0.85466   1.000
    C220    C    0.69154   0.40680   0.29540   1.000
    C221    C    0.69157   0.48429   0.30330   1.000
    C222    C    0.62545   0.52696   0.26903   1.000
    C223    C    0.56039   0.48829   0.22904   1.000
    C224    C    0.56267   0.41051   0.22570   1.000
    C225    C    0.62460   0.60962   0.27433   1.000
    C226    C    0.62153   0.65306   0.21006   1.000
    C227    C    0.62287   0.73222   0.21395   1.000
    C228    C    0.62578   0.72222   0.35119   1.000
    C229    C    0.62800   0.64535   0.34553   1.000
    C230    C    0.69155   0.09320   0.20459   1.000
    C231    C    0.69157   0.01571   0.19666   1.000
    C232    C    0.62545   0.97305   0.23096   1.000
    C233    C    0.56040   0.01171   0.27095   1.000
    C234    C    0.56268   0.08949   0.27426   1.000
    C235    C    0.62461   0.89038   0.22566   1.000
    C236    C    0.62152   0.84695   0.28993   1.000
    C237    C    0.62290   0.76778   0.28604   1.000
    C238    C    0.62579   0.77779   0.14880   1.000
    C239    C    0.62799   0.85466   0.15446   1.000
    C240    C    0.19154   0.20460   0.09319   1.000
    C241    C    0.19156   0.19666   0.01571   1.000
    C242    C    0.12545   0.23097   0.97300   1.000
    C243    C    0.06038   0.27096   0.01170   1.000
    C244    C    0.06267   0.27426   0.08949   1.000
    C245    C    0.12460   0.22567   0.89038   1.000
    C246    C    0.12152   0.28994   0.84695   1.000
    C247    C    0.12288   0.28605   0.76778   1.000
    C248    C    0.12579   0.14881   0.77778   1.000
    C249    C    0.12799   0.15447   0.85466   1.000
    C250    C    0.19154   0.29541   0.40680   1.000
    C251    C    0.19157   0.30334   0.48428   1.000
    C252    C    0.12545   0.26903   0.52695   1.000
    C253    C    0.06039   0.22904   0.48829   1.000
    C254    C    0.06267   0.22574   0.41051   1.000
    C255    C    0.12461   0.27433   0.60962   1.000
    C256    C    0.12152   0.21006   0.65305   1.000
    C257    C    0.12289   0.21395   0.73222   1.000
    C258    C    0.12579   0.35120   0.72222   1.000
    C259    C    0.12799   0.34553   0.64534   1.000
    C260    C    0.19154   0.40680   0.20460   1.000
    C261    C    0.19156   0.48429   0.19665   1.000
    C262    C    0.12545   0.52696   0.23090   1.000
    C263    C    0.06038   0.48829   0.27095   1.000
    C264    C    0.06267   0.41051   0.27426   1.000
    C265    C    0.12460   0.60962   0.22566   1.000
    C266    C    0.12152   0.65306   0.28990   1.000
    C267    C    0.12287   0.73222   0.28604   1.000
    C268    C    0.12578   0.72222   0.14880   1.000
    C269    C    0.12799   0.64535   0.15440   1.000
    C270    C    0.19154   0.09320   0.29540   1.000
    C271    C    0.19157   0.01571   0.30333   1.000
    C272    C    0.12544   0.97305   0.26903   1.000
    C273    C    0.06039   0.01171   0.22904   1.000
    C274    C    0.06267   0.08949   0.22574   1.000
    C275    C    0.12460   0.89038   0.27433   1.000
    C276    C    0.12151   0.84695   0.21006   1.000
    C277    C    0.12288   0.76779   0.21395   1.000
    C278    C    0.12578   0.77779   0.35119   1.000
    C279    C    0.12798   0.85466   0.34553   1.000
    N280    N    0.87239   0.75781   0.87035   1.000
    N281    N    0.87240   0.74219   0.62965   1.000
    N282    N    0.87240   0.62966   0.75781   1.000
    N283    N    0.87239   0.87035   0.74220   1.000
    N284    N    0.37238   0.75781   0.62965   1.000
    N285    N    0.37239   0.74220   0.87035   1.000
    N286    N    0.37238   0.62966   0.74220   1.000
    N287    N    0.37239   0.87035   0.75781   1.000
    N288    N    0.62763   0.24220   0.37034   1.000
    N289    N    0.62762   0.25781   0.12965   1.000
    N290    N    0.62762   0.37035   0.25780   1.000
    N291    N    0.62762   0.12965   0.24219   1.000
    N292    N    0.12762   0.24219   0.12965   1.000
    N293    N    0.12762   0.25781   0.37034   1.000
    N294    N    0.12761   0.37035   0.24219   1.000
    N295    N    0.12762   0.12965   0.25780   1.000
    F296    F    0.62223   0.69980   0.83116   1.000
    F297    F    0.62223   0.80021   0.66884   1.000
    F298    F    0.62223   0.66884   0.69980   1.000
    F299    F    0.62223   0.83117   0.80020   1.000
    F300    F    0.12222   0.69980   0.66884   1.000
    F301    F    0.12222   0.80021   0.83116   1.000
    F302    F    0.12222   0.66884   0.80020   1.000
    F303    F    0.12222   0.83117   0.69980   1.000
    F304    F    0.73682   0.75001   0.75000   1.000
    F305    F    0.50749   0.75000   0.75000   1.000
    F306    F    0.23681   0.75000   0.75000   1.000
    F307    F    0.00748   0.75001   0.75000   1.000
    F308    F    0.87778   0.30020   0.33116   1.000
    F309    F    0.87780   0.19980   0.16880   1.000
    F310    F    0.87779   0.33116   0.19979   1.000
    F311    F    0.87779   0.16884   0.30020   1.000
    F312    F    0.37777   0.30021   0.16884   1.000
    F313    F    0.37779   0.19980   0.33116   1.000
    F314    F    0.37777   0.33116   0.30020   1.000
    F315    F    0.37780   0.16884   0.19979   1.000
    F316    F    0.76320   0.25001   0.25000   1.000
    F317    F    0.99253   0.24999   0.24999   1.000
    F318    F    0.26319   0.25002   0.25000   1.000
    F319    F    0.49252   0.24998   0.25000   1.000
loop_
    _geom_bond_atom_site_label_1
    _geom_bond_atom_site_label_2
    _geom_bond_distance
    _geom_bond_site_symmetry_2
    _ccdc_geom_bond_type
    H44    C171      1.08954  1_554   S
    H9     C121      1.08963  1_554   S
    C243   C244      1.39009      .   S
    C243   C242      1.40299  1_554   S
    C243   H94       1.08938  1_554   S
    C213   C214      1.39009      .   S
    C213   C212      1.40300  1_554   S
    C213   H73       1.08938  1_554   S
    C211   C210      1.39011      .   S
    C211   C212      1.40353  1_554   S
    C211   H72       1.08970  1_554   S
    C241   C240      1.39011      .   S
    C241   C242      1.40353  1_554   S
    C241   H93       1.08971  1_554   S
    H10    C123      1.08938  1_554   S
    H45    C173      1.08938  1_554   S
    C172   C175      1.47858      .   S
    C172   C171      1.40305  1_554   S
    C172   C173      1.40264  1_554   S
    C122   C125      1.47840      .   S
    C122   C121      1.40307  1_554   S
    C122   C123      1.40264  1_554   S
    C244   H95       1.09085      .   S
    C244   N292      1.34897      .   S
    C214   H74       1.09085      .   S
    C214   N289      1.34898      .   S
    C210   H71       1.09213      .   S
    C210   N289      1.34960      .   S
    C240   H92       1.09214      .   S
    C240   N292      1.34960      .   S
    H111   C268      1.09142      .   S
    H90    C238      1.09141      .   S
    H91    C239      1.09118      .   S
    H112   C269      1.09028      .   S
    C125   C129      1.42273      .   S
    C125   C126      1.38533      .   S
    C175   C179      1.42267      .   S
    C175   C176      1.38523      .   S
    H14    C129      1.09118      .   S
    H49    C179      1.09118      .   S
    H12    C126      1.09201      .   S
    H47    C176      1.09144      .   S
    N292   Zn3       2.15256      .   S
    N289   Zn2       2.15256      .   S
    C179   C178      1.37610      .   S
    C129   C128      1.37611      .   S
    C268   C269      1.37609      .   S
    C268   C277      1.41965      .   S
    C238   C239      1.37618      .   S
    C238   C227      1.41964      .   S
    C176   C177      1.41488      .   S
    C126   C127      1.41452      .   S
    C269   C265      1.42364      .   S
    C239   C235      1.42269      .   S
    H117   C276      1.09144      .   S
    H82    C226      1.09146      .   S
    H107   C261      1.08965      .   S
    H86    C231      1.08958  1_565   S
    F309   Si6       1.70389      .   S
    F312   Si7       1.70330      .   S
    H85    C230      1.09213      .   S
    H106   C260      1.09218      .   S
    C261   C260      1.39018      .   S
    C261   C262      1.40271      .   S
    C231   C230      1.39014      .   S
    C231   C232      1.40315  1_545   S
    H116   C274      1.09149      .   S
    H81    C224      1.09119      .   S
    F315   Si7       1.70335      .   S
    F310   Si6       1.70337      .   S
    H115   C273      1.08948  1_565   S
    H80    C223      1.08945      .   S
    C230   N291      1.34961      .   S
    C260   N294      1.34957      .   S
    C226   C227      1.41486      .   S
    C226   C225      1.38524      .   S
    C276   C277      1.41485      .   S
    C276   C275      1.38525      .   S
    C227   C237      1.43468      .   S
    C277   C267      1.43469      .   S
    C178   H48       1.09146      .   S
    C178   C167      1.41967      .   S
    C128   H13       1.09145      .   S
    C128   C137      1.41970      .   S
    C235   C232      1.47849      .   S
    C235   C236      1.38527      .   S
    C265   C262      1.47844      .   S
    C265   C266      1.38480      .   S
    C224   C223      1.39000      .   S
    C224   N290      1.34926      .   S
    C274   C273      1.38999      .   S
    C274   N295      1.34897      .   S
    C273   C272      1.40248  1_545   S
    C223   C222      1.40265      .   S
    C262   C263      1.40322      .   S
    C232   C233      1.40251  1_565   S
    C127   C137      1.43486      .   S
    C127   C138      1.41980      .   S
    C177   C167      1.43470      .   S
    C177   C168      1.41960      .   S
    N291   Zn2       2.15252      .   S
    N291   C234      1.34902      .   S
    N294   Zn3       2.15249      .   S
    N294   C264      1.34897      .   S
    F317   Si6       1.74627      .   S
    F319   Si7       1.74627      .   S
    Zn2    N290      2.15249      .   S
    Zn2    N288      2.15237      .   S
    Zn3    N295      2.15251      .   S
    Zn3    N293      2.15237      .   S
    F318   Si7       1.74645      .   S
    F316   Si6       1.74645      .   S
    Si6    F311      1.70327      .   S
    Si6    F308      1.70327      .   S
    Si7    F314      1.70329      .   S
    Si7    F313      1.70326      .   S
    H20    C138      1.09146      .   S
    H41    C168      1.09148      .   S
    N290   C220      1.34960      .   S
    N295   C270      1.34958      .   S
    C167   C166      1.41488      .   S
    C137   C136      1.41472      .   S
    C222   C225      1.47849      .   S
    C222   C221      1.40290      .   S
    C272   C275      1.47851      .   S
    C272   C271      1.40316  1_565   S
    C263   C264      1.38998      .   S
    C263   H108      1.08951      .   S
    C233   C234      1.38998      .   S
    C233   H87       1.08955  1_545   S
    C264   H109      1.09147      .   S
    C234   H88       1.09144      .   S
    C225   C229      1.42270      .   S
    C275   C279      1.42270      .   S
    C168   C169      1.37610      .   S
    C138   C139      1.37610      .   S
    C237   C236      1.41485      .   S
    C237   C228      1.41963      .   S
    C267   C266      1.41482      .   S
    C267   C278      1.41964      .   S
    C266   H110      1.09114      .   S
    C236   H89       1.09066      .   S
    C270   C271      1.39016      .   S
    C270   H113      1.09217      .   S
    C220   C221      1.39010      .   S
    C220   H78       1.09215      .   S
    C221   H79       1.08999      .   S
    C271   H114      1.08958  1_545   S
    C229   C228      1.37617      .   S
    C229   H84       1.09116      .   S
    C279   C278      1.37617      .   S
    C279   H119      1.09117      .   S
    C136   H19       1.09151      .   S
    C136   C135      1.38534      .   S
    C166   H40       1.09145      .   S
    C166   C165      1.38525      .   S
    C228   H83       1.09142      .   S
    C278   H118      1.09141      .   S
    C139   H21       1.09119      .   S
    C139   C135      1.42273      .   S
    C169   H42       1.09127      .   S
    C169   C165      1.42273      .   S
    N293   C250      1.34961      .   S
    N293   C254      1.34908      .   S
    N288   C200      1.34960      .   S
    N288   C204      1.34899      .   S
    H64    C200      1.09214      .   S
    H99    C250      1.09214      .   S
    H67    C204      1.09141      .   S
    H102   C254      1.09150      .   S
    C165   C162      1.47840      .   S
    C135   C132      1.47840      .   S
    C200   C201      1.39009      .   S
    C250   C251      1.39009      .   S
    C204   C203      1.39008      .   S
    C254   C253      1.38990      .   S
    C162   C163      1.40270      .   S
    C162   C161      1.40319      .   S
    C132   C133      1.40261      .   S
    C132   C131      1.40318      .   S
    H17    C133      1.08941      .   S
    H38    C163      1.08950      .   S
    C251   H100      1.08975      .   S
    C251   C252      1.40319      .   S
    C201   H65       1.08976      .   S
    C201   C202      1.40320      .   S
    C203   H66       1.08951      .   S
    C203   C202      1.40261      .   S
    C253   H101      1.08951      .   S
    C253   C252      1.40262      .   S
    H37    C161      1.08969      .   S
    H16    C131      1.08968      .   S
    C133   C134      1.39009      .   S
    C163   C164      1.38990      .   S
    C161   C160      1.39027      .   S
    C131   C130      1.39011      .   S
    C252   C255      1.47858      .   S
    C202   C205      1.47858      .   S
    C164   H39       1.09149      .   S
    C164   N284      1.34900      .   S
    C134   H18       1.09150      .   S
    C134   N281      1.34897      .   S
    C130   H15       1.09223      .   S
    C130   N281      1.34960      .   S
    C160   H36       1.09214      .   S
    C160   N284      1.34952      .   S
    H55    C188      1.09155      .   S
    H34    C158      1.09141      .   S
    H35    C159      1.09117      .   S
    H56    C189      1.09118      .   S
    C255   C259      1.42265      .   S
    C255   C256      1.38523      .   S
    C205   C209      1.42265      .   S
    C205   C206      1.38523      .   S
    H70    C209      1.09117      .   S
    H105   C259      1.09117      .   S
    H103   C256      1.09145      .   S
    H68    C206      1.09145      .   S
    N284   Zn1       2.15255      .   S
    N281   Zn0       2.15256      .   S
    C209   C208      1.37628      .   S
    C259   C258      1.37628      .   S
    C158   C159      1.37619      .   S
    C158   C147      1.41889      .   S
    C188   C189      1.37619      .   S
    C188   C197      1.41961      .   S
    C256   C257      1.41489      .   S
    C206   C207      1.41488      .   S
    C159   C155      1.42271      .   S
    C189   C185      1.42270      .   S
    H61    C196      1.09148      .   S
    H26    C146      1.09146      .   S
    H30    C151      1.08956  1_545   S
    H51    C181      1.08976      .   S
    F300   Si5       1.70328      .   S
    F297   Si4       1.70329      .   S
    H50    C180      1.09214      .   S
    H29    C150      1.09211      .   S
    H60    C194      1.16316      .   S
    C151   C150      1.39016      .   S
    C151   C152      1.40327  1_565   S
    C181   C180      1.39018      .   S
    C181   C182      1.40320      .   S
    H25    C144      1.09148      .   S
    F303   Si5       1.70326      .   S
    F298   Si4       1.70326      .   S
    H24    C143      1.08952      .   S
    H59    C193      1.08950  1_545   S
    C150   N283      1.34963      .   S
    C180   N286      1.34956      .   S
    C146   C147      1.41481      .   S
    C146   C145      1.38526      .   S
    C196   C197      1.41485      .   S
    C196   C195      1.38526      .   S
    C147   C157      1.43564      .   S
    C197   C187      1.43468      .   S
    C258   H104      1.09138      .   S
    C258   C247      1.41961      .   S
    C208   H69       1.09138      .   S
    C208   C217      1.41960      .   S
    C185   C182      1.47851      .   S
    C185   C186      1.38525      .   S
    C155   C152      1.47849      .   S
    C155   C156      1.38524      .   S
    C194   C193      1.38999      .   S
    C194   N287      1.34900      .   S
    C144   C143      1.38999      .   S
    C144   N282      1.34905      .   S
    C143   C142      1.40259      .   S
    C193   C192      1.40251  1_565   S
    C152   C153      1.40247  1_545   S
    C182   C183      1.40263      .   S
    C207   C217      1.43470      .   S
    C207   C218      1.41959      .   S
    C257   C247      1.43470      .   S
    C257   C248      1.41958      .   S
    N283   Zn0       2.15249      .   S
    N283   C154      1.34901      .   S
    N286   Zn1       2.15249      .   S
    N286   C184      1.34899      .   S
    Zn1    N287      2.15251      .   S
    Zn1    N285      2.15256      .   S
    Si4    F305      1.74627      .   S
    Si4    F304      1.74645      .   S
    Si4    F299      1.70329      .   S
    Si4    F296      1.70327      .   S
    Si5    F307      1.74627      .   S
    Si5    F306      1.74645      .   S
    Si5    F302      1.70327      .   S
    Si5    F301      1.70328      .   S
    Zn0    N282      2.15250      .   S
    Zn0    N280      2.15255      .   S
    H97    C248      1.09208      .   S
    H76    C218      1.09208      .   S
    N287   C190      1.34611      .   S
    N282   C140      1.34959      .   S
    C247   C246      1.41488      .   S
    C217   C216      1.41489      .   S
    C142   C145      1.47851      .   S
    C142   C141      1.40317      .   S
    C192   C195      1.47849      .   S
    C192   C191      1.40323  1_545   S
    C153   C154      1.38997      .   S
    C153   H31       1.08949  1_565   S
    C183   C184      1.38999      .   S
    C183   H52       1.08941      .   S
    C184   H53       1.09150      .   S
    C154   H32       1.09148      .   S
    C195   C199      1.42267      .   S
    C145   C149      1.42267      .   S
    C218   C219      1.37628      .   S
    C248   C249      1.37628      .   S
    C187   C186      1.41485      .   S
    C187   C198      1.41966      .   S
    C157   C156      1.41486      .   S
    C157   C148      1.41673      .   S
    C186   H54       1.09144      .   S
    C156   H33       1.09146      .   S
    C190   C191      1.39089      .   S
    C190   H57       1.09442      .   S
    C140   C141      1.39016      .   S
    C140   H22       1.09210      .   S
    C141   H23       1.08975      .   S
    C191   H58       1.08956  1_565   S
    C199   C198      1.37620      .   S
    C199   H63       1.09055      .   S
    C149   C148      1.37594      .   S
    C149   H28       1.09117      .   S
    C216   H75       1.09144      .   S
    C216   C215      1.38524      .   S
    C246   H96       1.09144      .   S
    C246   C245      1.38524      .   S
    C148   H27       1.09461      .   S
    C198   H62       1.09143      .   S
    C219   H77       1.09118      .   S
    C219   C215      1.42267      .   S
    C249   H98       1.09118      .   S
    C249   C245      1.42265      .   S
    N285   C170      1.34950      .   S
    N285   C174      1.34897      .   S
    N280   C120      1.34953      .   S
    N280   C124      1.34897      .   S
    H43    C170      1.09214      .   S
    H8     C120      1.09215      .   S
    H11    C124      1.09151      .   S
    H46    C174      1.09150      .   S
    C245   C242      1.47769      .   S
    C215   C212      1.47769      .   S
    C120   C121      1.39027      .   S
    C170   C171      1.39030      .   S
    C124   C123      1.38990      .   S
    C174   C173      1.38991      .   S
