# CIF file generated by openbabel 2.4.90, see http://openbabel.sf.net
data_I
_chemical_name_common ''
_cell_length_a 17.555
_cell_length_b 17.545
_cell_length_c 15.913
_cell_angle_alpha 90
_cell_angle_beta 89.999
_cell_angle_gamma 92.602
_space_group_name_H-M_alt 'P 1'
_space_group_name_Hall 'P 1'
loop_
    _symmetry_equiv_pos_as_xyz
    x,y,z
loop_
    _atom_site_label
    _atom_site_type_symbol
    _atom_site_fract_x
    _atom_site_fract_y
    _atom_site_fract_z
    _atom_site_occupancy
    Cd0     Cd   0.46494   0.53496   0.32065   1.000
    Cd1     Cd   0.96495   0.03497   0.32065   1.000
    Cd2     Cd   0.96495   0.53496   0.32065   1.000
    Cd3     Cd   0.17309   0.32681   0.18737   1.000
    Cd4     Cd   0.17309   0.82680   0.18737   1.000
    Cd5     Cd   0.67310   0.32681   0.18737   1.000
    Cd6     Cd   0.67310   0.82680   0.18737   1.000
    Cd7     Cd   0.32028   0.17969   0.27074   1.000
    Cd8     Cd   0.32028   0.67968   0.27074   1.000
    Cd9     Cd   0.82029   0.17969   0.27074   1.000
    Cd10    Cd   0.82029   0.67968   0.27074   1.000
    Cd11    Cd   0.03507   0.46499   0.82063   1.000
    Cd12    Cd   0.03507   0.96498   0.82063   1.000
    Cd13    Cd   0.53508   0.46499   0.82063   1.000
    Cd14    Cd   0.53508   0.96498   0.82063   1.000
    Cd15    Cd   0.32692   0.17316   0.68737   1.000
    Cd16    Cd   0.32692   0.67315   0.68737   1.000
    Cd17    Cd   0.82693   0.17316   0.68737   1.000
    Cd18    Cd   0.82693   0.67315   0.68737   1.000
    Cd19    Cd   0.17973   0.32028   0.77070   1.000
    Cd20    Cd   0.17973   0.82027   0.77070   1.000
    Cd21    Cd   0.67974   0.32028   0.77070   1.000
    Cd22    Cd   0.67974   0.82027   0.77070   1.000
    H23     H    0.34753   0.37832   0.25761   1.000
    H24     H    0.34753   0.87831   0.25760   1.000
    H25     H    0.84754   0.37832   0.25761   1.000
    H26     H    0.84754   0.87831   0.25761   1.000
    H27     H    0.18490   0.03451   0.18792   1.000
    H28     H    0.18491   0.53450   0.18792   1.000
    H29     H    0.68491   0.03451   0.18792   1.000
    H30     H    0.68492   0.53450   0.18792   1.000
    H31     H    0.15247   0.12165   0.75757   1.000
    Cd32    Cd   0.46494   0.03497   0.32065   1.000
    H33     H    0.15247   0.62164   0.75757   1.000
    H34     H    0.65248   0.12165   0.75757   1.000
    H35     H    0.65248   0.62164   0.75757   1.000
    H36     H    0.31510   0.46547   0.68789   1.000
    H37     H    0.31511   0.96546   0.68789   1.000
    H38     H    0.81511   0.46547   0.68789   1.000
    H39     H    0.81512   0.96546   0.68789   1.000
    H40     H    0.37868   0.34769   0.75752   1.000
    H41     H    0.37868   0.84768   0.75752   1.000
    H42     H    0.87869   0.34769   0.75752   1.000
    H43     H    0.87869   0.84768   0.75752   1.000
    H44     H    0.03446   0.18462   0.68802   1.000
    H45     H    0.03446   0.68461   0.68802   1.000
    H46     H    0.53447   0.18462   0.68802   1.000
    H47     H    0.53447   0.68461   0.68802   1.000
    H48     H    0.12133   0.15229   0.25756   1.000
    H49     H    0.12133   0.65228   0.25756   1.000
    H50     H    0.62134   0.15229   0.25756   1.000
    H51     H    0.62134   0.65228   0.25756   1.000
    H52     H    0.46555   0.31535   0.18804   1.000
    H53     H    0.46555   0.81535   0.18804   1.000
    H54     H    0.96556   0.31536   0.18804   1.000
    H55     H    0.96556   0.81535   0.18804   1.000
    H56     H    0.28897   0.21143   0.48435   1.000
    H57     H    0.28898   0.71142   0.48435   1.000
    H58     H    0.78898   0.21143   0.48435   1.000
    H59     H    0.78899   0.71142   0.48435   1.000
    H60     H    0.44831   0.05133   0.55436   1.000
    H61     H    0.44831   0.55132   0.55436   1.000
    H62     H    0.94832   0.05133   0.55436   1.000
    H63     H    0.94832   0.55132   0.55436   1.000
    H64     H    0.21104   0.28854   0.98432   1.000
    H65     H    0.21104   0.78853   0.98432   1.000
    H66     H    0.71105   0.28854   0.98432   1.000
    H67     H    0.71105   0.78853   0.98432   1.000
    H68     H    0.05170   0.44864   0.05435   1.000
    H69     H    0.05170   0.94863   0.05435   1.000
    H70     H    0.55171   0.44864   0.05435   1.000
    H71     H    0.55171   0.94863   0.05435   1.000
    C72     C    0.31961   0.43093   0.24504   1.000
    C73     C    0.31961   0.93092   0.24504   1.000
    C74     C    0.81962   0.43093   0.24504   1.000
    C75     C    0.81962   0.93092   0.24504   1.000
    C76     C    0.23684   0.01025   0.21022   1.000
    C77     C    0.23684   0.51024   0.21022   1.000
    C78     C    0.73685   0.01025   0.21022   1.000
    C79     C    0.73685   0.51024   0.21022   1.000
    C80     C    0.18039   0.06904   0.74501   1.000
    C81     C    0.18039   0.56903   0.74501   1.000
    C82     C    0.68040   0.06904   0.74501   1.000
    C83     C    0.68040   0.56903   0.74501   1.000
    C84     C    0.26317   0.48973   0.71019   1.000
    C85     C    0.26317   0.98972   0.71019   1.000
    C86     C    0.76318   0.48973   0.71019   1.000
    C87     C    0.76318   0.98972   0.71019   1.000
    C88     C    0.43120   0.31964   0.74490   1.000
    C89     C    0.43121   0.81963   0.74490   1.000
    C90     C    0.93121   0.31964   0.74490   1.000
    C91     C    0.93122   0.81963   0.74498   1.000
    C92     C    0.01031   0.23665   0.71020   1.000
    C93     C    0.01031   0.73664   0.71020   1.000
    C94     C    0.51032   0.23665   0.71028   1.000
    C95     C    0.51032   0.73664   0.71020   1.000
    C96     C    0.06881   0.18034   0.24502   1.000
    C97     C    0.06881   0.68033   0.24502   1.000
    C98     C    0.56881   0.18034   0.24502   1.000
    C99     C    0.56882   0.68033   0.24502   1.000
    Cl100   Cl   0.72948   0.77020   0.33786   1.000
    Cl101   Cl   0.26912   0.23076   0.12643   1.000
    Cl102   Cl   0.26912   0.73075   0.12643   1.000
    Cl103   Cl   0.76913   0.23076   0.12643   1.000
    C104    C    0.48970   0.26332   0.21030   1.000
    C105    C    0.48970   0.76332   0.21030   1.000
    C106    C    0.98971   0.26333   0.21030   1.000
    C107    C    0.98971   0.76332   0.21030   1.000
    C108    C    0.33162   0.16860   0.48194   1.000
    C109    C    0.33162   0.66859   0.48194   1.000
    C110    C    0.83163   0.16860   0.48194   1.000
    C111    C    0.83163   0.66859   0.48194   1.000
    C112    C    0.41236   0.08747   0.51764   1.000
    C113    C    0.41236   0.58746   0.51764   1.000
    C114    C    0.91237   0.08747   0.51764   1.000
    C115    C    0.91237   0.58746   0.51764   1.000
    C116    C    0.16839   0.33137   0.98191   1.000
    C117    C    0.16840   0.83136   0.98191   1.000
    C118    C    0.66840   0.33137   0.98191   1.000
    C119    C    0.66841   0.83136   0.98191   1.000
    C120    C    0.08765   0.41250   0.01760   1.000
    C121    C    0.08765   0.91249   0.01760   1.000
    C122    C    0.58766   0.41250   0.01760   1.000
    C123    C    0.58766   0.91249   0.01760   1.000
    N124    N    0.35075   0.00010   0.26075   1.000
    N125    N    0.35075   0.50009   0.26075   1.000
    N126    N    0.85076   0.00010   0.26075   1.000
    N127    N    0.85076   0.50009   0.26075   1.000
    N128    N    0.29712   0.05167   0.23840   1.000
    N129    N    0.29712   0.55166   0.23840   1.000
    N130    N    0.79713   0.05167   0.23840   1.000
    N131    N    0.79713   0.55166   0.23840   1.000
    N132    N    0.24836   0.43439   0.21333   1.000
    N133    N    0.24837   0.93438   0.21333   1.000
    N134    N    0.74838   0.43439   0.21333   1.000
    N135    N    0.74838   0.93438   0.21333   1.000
    N136    N    0.14926   0.49987   0.76072   1.000
    N137    N    0.14926   0.99986   0.76072   1.000
    N138    N    0.64926   0.49987   0.76072   1.000
    N139    N    0.64927   0.99986   0.76072   1.000
    N140    N    0.20289   0.44830   0.73841   1.000
    N141    N    0.20289   0.94829   0.73841   1.000
    N142    N    0.70290   0.44830   0.73841   1.000
    N143    N    0.70290   0.94829   0.73841   1.000
    N144    N    0.25164   0.06558   0.71330   1.000
    N145    N    0.25164   0.56557   0.71330   1.000
    N146    N    0.75165   0.06558   0.71330   1.000
    N147    N    0.75165   0.56557   0.71330   1.000
    N148    N    0.00036   0.35068   0.76073   1.000
    N149    N    0.00036   0.85067   0.76073   1.000
    N150    N    0.50037   0.35068   0.76073   1.000
    N151    N    0.50037   0.85067   0.76073   1.000
    N152    N    0.05180   0.29691   0.73847   1.000
    N153    N    0.05181   0.79690   0.73847   1.000
    N154    N    0.55181   0.29691   0.73847   1.000
    N155    N    0.55182   0.79690   0.73847   1.000
    N156    N    0.43454   0.24831   0.71337   1.000
    N157    N    0.43454   0.74830   0.71330   1.000
    N158    N    0.93455   0.24831   0.71337   1.000
    N159    N    0.93455   0.74830   0.71330   1.000
    N160    N    0.49965   0.14929   0.26076   1.000
    N161    N    0.49966   0.64929   0.26076   1.000
    N162    N    0.99966   0.14929   0.26076   1.000
    N163    N    0.99967   0.64929   0.26076   1.000
    N164    N    0.44820   0.20306   0.23850   1.000
    N165    N    0.44821   0.70305   0.23850   1.000
    N166    N    0.94821   0.20306   0.23851   1.000
    N167    N    0.94822   0.70305   0.23851   1.000
    N168    N    0.06547   0.25167   0.21339   1.000
    N169    N    0.06547   0.75166   0.21339   1.000
    N170    N    0.56548   0.25166   0.21339   1.000
    N171    N    0.56548   0.75166   0.21339   1.000
    N172    N    0.35885   0.14126   0.41047   1.000
    N173    N    0.35885   0.64125   0.41047   1.000
    N174    N    0.85886   0.14126   0.41047   1.000
    N175    N    0.85886   0.64125   0.41047   1.000
    N176    N    0.41128   0.08857   0.43359   1.000
    N177    N    0.41129   0.58856   0.43359   1.000
    N178    N    0.91129   0.08857   0.43359   1.000
    N179    N    0.91129   0.58856   0.43359   1.000
    N180    N    0.36332   0.13674   0.55071   1.000
    N181    N    0.36332   0.63673   0.55071   1.000
    N182    N    0.86333   0.13674   0.55071   1.000
    N183    N    0.86333   0.63673   0.55071   1.000
    N184    N    0.14117   0.35871   0.91044   1.000
    N185    N    0.14117   0.85870   0.91044   1.000
    N186    N    0.64118   0.35871   0.91044   1.000
    N187    N    0.64118   0.85870   0.91044   1.000
    N188    N    0.08873   0.41139   0.93356   1.000
    N189    N    0.08873   0.91138   0.93356   1.000
    N190    N    0.58874   0.41139   0.93356   1.000
    N191    N    0.58874   0.91138   0.93356   1.000
    N192    N    0.13669   0.36323   0.05070   1.000
    N193    N    0.13670   0.86322   0.05070   1.000
    N194    N    0.63670   0.36323   0.05070   1.000
    N195    N    0.63671   0.86322   0.05070   1.000
    Cl196   Cl   0.05806   0.44252   0.28649   1.000
    Cl197   Cl   0.05806   0.94251   0.28649   1.000
    Cl198   Cl   0.55807   0.44251   0.28649   1.000
    Cl199   Cl   0.55807   0.94251   0.28649   1.000
    Cl200   Cl   0.22946   0.27021   0.33786   1.000
    Cl201   Cl   0.22947   0.77020   0.33786   1.000
    Cl202   Cl   0.72947   0.27021   0.33786   1.000
    Cl203   Cl   0.76913   0.73075   0.12643   1.000
    Cl204   Cl   0.44195   0.05745   0.78645   1.000
    Cl205   Cl   0.44195   0.55744   0.78645   1.000
    Cl206   Cl   0.94196   0.05745   0.78645   1.000
    Cl207   Cl   0.94196   0.55744   0.78645   1.000
    Cl208   Cl   0.27054   0.22976   0.83784   1.000
    Cl209   Cl   0.27054   0.72975   0.83784   1.000
    Cl210   Cl   0.77055   0.22976   0.83784   1.000
    Cl211   Cl   0.77055   0.72975   0.83784   1.000
    Cl212   Cl   0.23090   0.26922   0.62641   1.000
    Cl213   Cl   0.23090   0.76921   0.62641   1.000
    Cl214   Cl   0.73091   0.26922   0.62641   1.000
    Cl215   Cl   0.73091   0.76921   0.62641   1.000
loop_
    _geom_bond_atom_site_label_1
    _geom_bond_atom_site_label_2
    _geom_bond_distance
    _geom_bond_site_symmetry_2
    _ccdc_geom_bond_type
    C123   N195      1.35410      .   S
    C123   H71       1.08568      .   S
    C123   N191      1.33762  1_554   S
    C122   N194      1.35411      .   S
    C122   H70       1.08567      .   S
    C122   N190      1.33762  1_554   S
    C121   N193      1.35411      .   S
    C121   H69       1.08567      .   S
    C121   N189      1.33762  1_554   S
    C120   N192      1.35410      .   S
    C120   H68       1.08567      .   S
    C120   N188      1.33762  1_554   S
    N192   Cd3       2.36294      .   S
    N192   C116      1.35970  1_554   S
    N193   Cd4       2.36294      .   S
    N193   C117      1.35969  1_554   S
    N194   Cd5       2.36294      .   S
    N194   C118      1.35969  1_554   S
    N195   Cd6       2.36294      .   S
    N195   C119      1.35970  1_554   S
    Cl103  Cd5       2.62306      .   S
    Cl102  Cd4       2.62306      .   S
    Cl101  Cd3       2.62306      .   S
    Cl203  Cd6       2.62306      .   S
    Cd4    N133      2.29199      .   S
    Cd4    N169      2.29188      .   S
    Cd3    N132      2.29199      .   S
    Cd3    N168      2.29188      .   S
    Cd5    N134      2.29199      .   S
    Cd5    N170      2.29189      .   S
    Cd6    N135      2.29201      .   S
    Cd6    N171      2.29188      .   S
    H30    C79       1.08335      .   S
    H29    C78       1.08333      .   S
    H28    C77       1.08333      .   S
    H27    C76       1.08333      .   S
    H52    C104      1.08336      .   S
    H53    C105      1.08335      .   S
    H54    C106      1.08335      .   S
    H55    C107      1.08336      .   S
    C77    N132      1.35599      .   S
    C77    N129      1.33390      .   S
    C78    N135      1.35632  1_545   S
    C78    N130      1.33391      .   S
    C76    N133      1.35634  1_545   S
    C76    N128      1.33391      .   S
    C79    N134      1.35599      .   S
    C79    N131      1.33390      .   S
    C106   N168      1.35565  1_655   S
    C106   N166      1.33423      .   S
    C107   N169      1.35563  1_655   S
    C107   N167      1.33424      .   S
    C105   N171      1.35598      .   S
    C105   N165      1.33419      .   S
    C104   N170      1.35598      .   S
    C104   N164      1.33418      .   S
    N135   C75       1.35257      .   S
    N132   C72       1.35257      .   S
    N133   C73       1.35257      .   S
    N134   C74       1.35257      .   S
    N168   C96       1.35264      .   S
    N169   C97       1.35265      .   S
    N170   C98       1.35263      .   S
    N171   C99       1.35265      .   S
    N130   N126      1.38164      .   S
    N130   Cd9       2.32203      .   S
    N131   N127      1.38163      .   S
    N131   Cd10      2.32203      .   S
    N129   N125      1.38164      .   S
    N129   Cd8       2.32203      .   S
    N128   N124      1.38164      .   S
    N128   Cd7       2.32203      .   S
    N164   N160      1.38147      .   S
    N164   Cd7       2.32190      .   S
    N165   N161      1.38147      .   S
    N165   Cd8       2.32188      .   S
    N166   N162      1.38141      .   S
    N166   Cd9       2.32186      .   S
    N167   N163      1.38141      .   S
    N167   Cd10      2.32186      .   S
    C99    H51       1.08322      .   S
    C99    N161      1.33170      .   S
    C98    H50       1.08322      .   S
    C98    N160      1.33171      .   S
    C96    H48       1.08323      .   S
    C96    N162      1.33139  1_455   S
    C97    H49       1.08322      .   S
    C97    N163      1.33140  1_455   S
    C74    H25       1.08323      .   S
    C74    N127      1.33172      .   S
    C72    H23       1.08323      .   S
    C72    N125      1.33173      .   S
    C73    H24       1.08319      .   S
    C73    N124      1.33201  1_565   S
    C75    H26       1.08323      .   S
    C75    N126      1.33199  1_565   S
    N125   Cd0       2.27818      .   S
    N127   Cd2       2.27819      .   S
    N126   Cd1       2.27819      .   S
    N124   Cd32      2.27819      .   S
    N161   Cd0       2.27856      .   S
    N162   Cd1       2.27855      .   S
    N163   Cd2       2.27855      .   S
    N160   Cd32      2.27854      .   S
    Cd7    Cl200     2.53661      .   S
    Cd7    N172      2.42874      .   S
    Cd8    Cl201     2.53662      .   S
    Cd8    N173      2.42874      .   S
    Cd9    Cl202     2.53662      .   S
    Cd9    N174      2.42874      .   S
    Cd10   Cl100     2.53661      .   S
    Cd10   N175      2.42874      .   S
    Cl196  Cd2       2.41639  1_455   S
    Cl199  Cd32      2.41692  1_565   S
    Cl198  Cd0       2.41663      .   S
    Cl197  Cd1       2.41667  1_465   S
    Cd0    N177      2.25431      .   S
    Cd32   N176      2.25431      .   S
    Cd1    N178      2.25432      .   S
    Cd2    N179      2.25432      .   S
    N172   N176      1.38356      .   S
    N172   C108      1.33153      .   S
    N173   N177      1.38356      .   S
    N173   C109      1.33153      .   S
    N174   N178      1.38356      .   S
    N174   C110      1.33152      .   S
    N175   N179      1.38355      .   S
    N175   C111      1.33153      .   S
    N176   C112      1.33778      .   S
    N177   C113      1.33778      .   S
    N178   C114      1.33778      .   S
    N179   C115      1.33778      .   S
    C108   H56       1.08520      .   S
    C108   N180      1.35939      .   S
    C109   H57       1.08520      .   S
    C109   N181      1.35940      .   S
    C110   H58       1.08521      .   S
    C110   N182      1.35939      .   S
    C111   H59       1.08518      .   S
    C111   N183      1.35940      .   S
    C112   N180      1.35394      .   S
    C112   H60       1.08538      .   S
    C115   N183      1.35394      .   S
    C115   H63       1.08538      .   S
    C113   N181      1.35392      .   S
    C113   H61       1.08539      .   S
    C114   N182      1.35392      .   S
    C114   H62       1.08539      .   S
    N183   Cd18      2.36280      .   S
    N182   Cd17      2.36280      .   S
    N181   Cd16      2.36280      .   S
    N180   Cd15      2.36280      .   S
    Cl215  Cd18      2.62312      .   S
    Cl214  Cd17      2.62314      .   S
    Cl213  Cd16      2.62314      .   S
    Cl212  Cd15      2.62312      .   S
    Cd17   N146      2.29194      .   S
    Cd17   N158      2.29187      .   S
    Cd18   N159      2.29167      .   S
    Cd18   N147      2.29195      .   S
    Cd16   N145      2.29195      .   S
    Cd16   N157      2.29165      .   S
    Cd15   N144      2.29194      .   S
    Cd15   N156      2.29187      .   S
    H36    C84       1.08334      .   S
    H37    C85       1.08334      .   S
    H38    C86       1.08334      .   S
    H39    C87       1.08334      .   S
    H47    C95       1.08294      .   S
    H46    C94       1.08335      .   S
    H45    C93       1.08294      .   S
    H44    C92       1.08293      .   S
    C84    N145      1.35598      .   S
    C84    N140      1.33414      .   S
    C85    N144      1.35632  1_565   S
    C85    N141      1.33414      .   S
    C86    N147      1.35596      .   S
    C86    N142      1.33414      .   S
    C87    N146      1.35632  1_565   S
    C87    N143      1.33413      .   S
    C92    N158      1.35569  1_455   S
    C92    N152      1.33458      .   S
    C93    N159      1.35565  1_455   S
    C93    N153      1.33458      .   S
    C95    N157      1.35599      .   S
    C95    N155      1.33458      .   S
    C94    N156      1.35597      .   S
    C94    N154      1.33415      .   S
    N146   C82       1.35258      .   S
    N145   C81       1.35258      .   S
    N144   C80       1.35258      .   S
    N159   C91       1.35295      .   S
    N157   C89       1.35248      .   S
    N147   C83       1.35258      .   S
    N156   C88       1.35205      .   S
    N158   C90       1.35207      .   S
    N142   N138      1.38147      .   S
    N142   Cd21      2.32184      .   S
    N141   N137      1.38147      .   S
    N141   Cd20      2.32184      .   S
    N143   N139      1.38147      .   S
    N143   Cd22      2.32185      .   S
    N140   N136      1.38148      .   S
    N140   Cd19      2.32183      .   S
    N155   N151      1.38148      .   S
    N155   Cd22      2.32184      .   S
    N154   N150      1.38147      .   S
    N154   Cd21      2.32186      .   S
    N153   N149      1.38147      .   S
    N153   Cd20      2.32186      .   S
    N152   N148      1.38148      .   S
    N152   Cd19      2.32184      .   S
    C90    H42       1.08347      .   S
    C90    N148      1.33167  1_655   S
    C89    H41       1.08347      .   S
    C89    N151      1.33197      .   S
    C88    H40       1.08348      .   S
    C88    N150      1.33198      .   S
    C91    H43       1.08325      .   S
    C91    N149      1.33143  1_655   S
    C83    H35       1.08321      .   S
    C83    N138      1.33173      .   S
    C82    H34       1.08320      .   S
    C82    N139      1.33201  1_545   S
    C81    H33       1.08321      .   S
    C81    N136      1.33173      .   S
    C80    H31       1.08322      .   S
    C80    N137      1.33200  1_545   S
    N136   Cd11      2.27816      .   S
    N139   Cd14      2.27816      .   S
    N138   Cd13      2.27816      .   S
    N137   Cd12      2.27816      .   S
    N151   Cd14      2.27852      .   S
    N150   Cd13      2.27851      .   S
    N149   Cd12      2.27851      .   S
    N148   Cd11      2.27852      .   S
    Cd22   Cl211     2.53675      .   S
    Cd22   N187      2.42879      .   S
    Cd19   Cl208     2.53676      .   S
    Cd19   N184      2.42879      .   S
    Cd20   Cl209     2.53676      .   S
    Cd20   N185      2.42880      .   S
    Cd21   Cl210     2.53675      .   S
    Cd21   N186      2.42879      .   S
    Cl207  Cd11      2.41643  1_655   S
    Cl206  Cd12      2.41672  1_645   S
    Cl205  Cd13      2.41668      .   S
    Cl204  Cd14      2.41697  1_545   S
    Cd11   N188      2.25429      .   S
    Cd12   N189      2.25429      .   S
    Cd13   N190      2.25429      .   S
    Cd14   N191      2.25429      .   S
    N184   N188      1.38355      .   S
    N184   C116      1.33152      .   S
    N185   N189      1.38355      .   S
    N185   C117      1.33152      .   S
    N186   N190      1.38356      .   S
    N186   C118      1.33151      .   S
    N187   N191      1.38355      .   S
    N187   C119      1.33152      .   S
    C118   H66       1.08521      .   S
    C116   H64       1.08520      .   S
    C117   H65       1.08520      .   S
    C119   H67       1.08520      .   S
