# CIF file generated by openbabel 2.4.90, see http://openbabel.sf.net
data_I
_chemical_name_common ''
_cell_length_a 20.255
_cell_length_b 18.421
_cell_length_c 18.542
_cell_angle_alpha 89.999
_cell_angle_beta 90.023
_cell_angle_gamma 89.947
_space_group_name_H-M_alt 'P 1'
_space_group_name_Hall 'P 1'
loop_
    _symmetry_equiv_pos_as_xyz
    x,y,z
loop_
    _atom_site_label
    _atom_site_type_symbol
    _atom_site_fract_x
    _atom_site_fract_y
    _atom_site_fract_z
    _atom_site_occupancy
    Zn0     Zn   0.96415   0.93762   0.67814   1.000
    Zn1     Zn   0.05869   0.03431   0.78443   1.000
    Zn2     Zn   0.55868   0.03431   0.78443   1.000
    Zn3     Zn   0.28586   0.43781   0.82177   1.000
    Zn4     Zn   0.78586   0.43781   0.82177   1.000
    Zn5     Zn   0.19127   0.53422   0.71543   1.000
    Zn6     Zn   0.69126   0.53422   0.71543   1.000
    Zn7     Zn   0.03581   0.56233   0.67810   1.000
    Zn8     Zn   0.53580   0.56233   0.67810   1.000
    Zn9     Zn   0.44128   0.46572   0.78452   1.000
    Zn10    Zn   0.94127   0.46572   0.78452   1.000
    Zn11    Zn   0.21408   0.06240   0.82180   1.000
    Zn12    Zn   0.71408   0.06240   0.82180   1.000
    Zn13    Zn   0.30873   0.96576   0.71542   1.000
    Zn14    Zn   0.80872   0.96576   0.71542   1.000
    Zn15    Zn   0.03583   0.06237   0.32184   1.000
    Zn16    Zn   0.53582   0.06237   0.32184   1.000
    Zn17    Zn   0.44131   0.96568   0.21555   1.000
    Zn18    Zn   0.94130   0.96568   0.21555   1.000
    Zn19    Zn   0.21413   0.56218   0.17821   1.000
    Zn20    Zn   0.71412   0.56218   0.17821   1.000
    Zn21    Zn   0.30872   0.46577   0.28455   1.000
    Zn22    Zn   0.80872   0.46577   0.28455   1.000
    Zn23    Zn   0.46419   0.43767   0.32182   1.000
    Zn24    Zn   0.96418   0.43767   0.32182   1.000
    Zn25    Zn   0.05871   0.53427   0.21547   1.000
    Zn26    Zn   0.55871   0.53427   0.21547   1.000
    Zn27    Zn   0.28591   0.93759   0.17813   1.000
    Zn28    Zn   0.78590   0.93759   0.17813   1.000
    Zn29    Zn   0.19127   0.03424   0.28456   1.000
    Zn30    Zn   0.69126   0.03424   0.28456   1.000
    Zn31    Zn   0.99999   0.74997   0.69027   1.000
    Zn32    Zn   0.46416   0.93762   0.67814   1.000
    Zn33    Zn   0.49999   0.74997   0.69027   1.000
    Zn34    Zn   0.24977   0.25022   0.81190   1.000
    Zn35    Zn   0.74976   0.25022   0.81190   1.000
    Zn36    Zn   0.00000   0.25002   0.30972   1.000
    Zn37    Zn   0.49999   0.25002   0.30972   1.000
    Zn38    Zn   0.25023   0.74978   0.18808   1.000
    Zn39    Zn   0.75022   0.74978   0.18808   1.000
    Zn40    Zn   1.00000   0.00000   0.49999   1.000
    Zn41    Zn   0.49999   0.00000   0.49999   1.000
    Zn42    Zn   0.25000   0.50000   0.99999   1.000
    Zn43    Zn   0.74999   0.50000   0.00000   1.000
    Zn44    Zn   0.00000   0.50000   0.49999   1.000
    Zn45    Zn   0.49999   0.50000   0.49999   1.000
    Zn46    Zn   0.25000   0.00000   0.00000   1.000
    Zn47    Zn   0.74999   0.00000   0.00000   1.000
    H48     H    0.08047   0.86302   0.52208   1.000
    H49     H    0.58045   0.86301   0.52207   1.000
    H50     H    0.10475   0.87707   0.82776   1.000
    H51     H    0.60474   0.87707   0.82777   1.000
    H52     H    0.37865   0.00764   0.86706   1.000
    H53     H    0.87864   0.00765   0.86706   1.000
    H54     H    0.02574   0.14787   0.66027   1.000
    H55     H    0.52573   0.14787   0.66027   1.000
    H56     H    0.35404   0.75519   0.69019   1.000
    H57     H    0.85403   0.75519   0.69018   1.000
    H58     H    0.30551   0.99079   0.54940   1.000
    H59     H    0.80550   0.99079   0.54940   1.000
    H60     H    0.16859   0.36513   0.97771   1.000
    H61     H    0.66859   0.36513   0.97771   1.000
    H62     H    0.14582   0.37683   0.67210   1.000
    H63     H    0.64581   0.37683   0.67210   1.000
    H64     H    0.37141   0.50757   0.63294   1.000
    H65     H    0.87140   0.50757   0.63294   1.000
    H66     H    0.22381   0.64820   0.83978   1.000
    H67     H    0.72380   0.64820   0.83978   1.000
    H68     H    0.39602   0.25527   0.81114   1.000
    H69     H    0.89601   0.25527   0.81114   1.000
    H70     H    0.44458   0.49064   0.95048   1.000
    H71     H    0.94458   0.49064   0.95048   1.000
    H72     H    0.41953   0.63696   0.52201   1.000
    H73     H    0.91953   0.63696   0.52201   1.000
    H74     H    0.39529   0.62293   0.82774   1.000
    H75     H    0.89528   0.62293   0.82773   1.000
    H76     H    0.12140   0.49267   0.86706   1.000
    H77     H    0.62140   0.49268   0.86700   1.000
    H78     H    0.47405   0.35200   0.66024   1.000
    H79     H    0.97404   0.35200   0.66024   1.000
    H80     H    0.14594   0.74480   0.68988   1.000
    H81     H    0.64594   0.74480   0.68980   1.000
    H82     H    0.19443   0.50922   0.54948   1.000
    H83     H    0.69443   0.50922   0.54948   1.000
    H84     H    0.32982   0.13624   0.97920   1.000
    H85     H    0.82981   0.13624   0.97927   1.000
    H86     H    0.35474   0.12373   0.67340   1.000
    H87     H    0.85473   0.12373   0.67340   1.000
    H88     H    0.12851   0.99235   0.63309   1.000
    H89     H    0.62851   0.99234   0.63309   1.000
    H90     H    0.27618   0.85201   0.83973   1.000
    H91     H    0.77617   0.85201   0.83973   1.000
    H92     H    0.10376   0.24510   0.80897   1.000
    H93     H    0.60376   0.24510   0.80897   1.000
    H94     H    0.05542   0.00946   0.95055   1.000
    H95     H    0.55541   0.00946   0.95055   1.000
    H96     H    0.41953   0.13698   0.47791   1.000
    H97     H    0.91953   0.13698   0.47791   1.000
    H98     H    0.39524   0.12293   0.17222   1.000
    H99     H    0.89523   0.12293   0.17222   1.000
    C100    C    0.58062   0.99786   0.17204   1.000
    C101    C    0.13678   0.18596   0.30611   1.000
    C102    C    0.63677   0.18596   0.30611   1.000
    C103    C    0.14077   0.01260   0.44035   1.000
    H104    H    0.12134   0.99235   0.13292   1.000
    H105    H    0.62134   0.99235   0.13292   1.000
    H106    H    0.47425   0.85212   0.33970   1.000
    H107    H    0.97424   0.85212   0.33970   1.000
    H108    H    0.14596   0.24480   0.30980   1.000
    H109    H    0.64595   0.24480   0.30985   1.000
    H110    H    0.19448   0.00921   0.45053   1.000
    H111    H    0.69447   0.00920   0.45053   1.000
    H112    H    0.33139   0.63487   0.02227   1.000
    H113    H    0.83139   0.63487   0.02227   1.000
    H114    H    0.35417   0.62316   0.32789   1.000
    H115    H    0.85416   0.62316   0.32789   1.000
    H116    H    0.12859   0.49243   0.36704   1.000
    H117    H    0.62858   0.49243   0.36704   1.000
    H118    H    0.27618   0.35179   0.16020   1.000
    H119    H    0.77617   0.35179   0.16020   1.000
    H120    H    0.10397   0.74473   0.18885   1.000
    H121    H    0.60397   0.74473   0.18885   1.000
    H122    H    0.05541   0.50936   0.04950   1.000
    H123    H    0.55540   0.50936   0.04950   1.000
    H124    H    0.08047   0.36304   0.47797   1.000
    H125    H    0.58045   0.36303   0.47797   1.000
    H126    H    0.10471   0.37706   0.17225   1.000
    H127    H    0.60470   0.37706   0.17225   1.000
    H128    H    0.37859   0.50733   0.13292   1.000
    H129    H    0.87858   0.50732   0.13292   1.000
    H130    H    0.02594   0.64799   0.33974   1.000
    H131    H    0.52593   0.64799   0.33974   1.000
    O132    O    0.42403   0.83355   0.68768   1.000
    O133    O    0.92402   0.83355   0.68768   1.000
    O134    O    0.39718   0.99072   0.50634   1.000
    O135    O    0.89717   0.99072   0.50634   1.000
    O136    O    0.31424   0.85464   0.70362   1.000
    H137    H    0.35405   0.25520   0.31012   1.000
    H138    H    0.85404   0.25520   0.31012   1.000
    H139    H    0.30556   0.49078   0.45050   1.000
    H140    H    0.80555   0.49078   0.45050   1.000
    H141    H    0.17017   0.86375   0.02072   1.000
    H142    H    0.67016   0.86376   0.02070   1.000
    H143    H    0.14526   0.87626   0.32660   1.000
    H144    H    0.64525   0.87626   0.32600   1.000
    H145    H    0.37148   0.00765   0.36690   1.000
    H146    H    0.87147   0.00765   0.36690   1.000
    H147    H    0.22381   0.14798   0.16025   1.000
    H148    H    0.72380   0.14798   0.16025   1.000
    H149    H    0.39623   0.75489   0.19100   1.000
    H150    H    0.89622   0.75489   0.19102   1.000
    H151    H    0.44457   0.99054   0.04944   1.000
    H152    H    0.94457   0.99054   0.04944   1.000
    C153    C    0.05029   0.85981   0.57146   1.000
    C154    C    0.55028   0.85981   0.57146   1.000
    C155    C    0.06843   0.86531   0.78468   1.000
    C156    C    0.56842   0.86531   0.78468   1.000
    C157    C    0.01226   0.09435   0.63766   1.000
    C158    C    0.51225   0.09435   0.63766   1.000
    C159    C    0.41936   0.00213   0.82794   1.000
    C160    C    0.91936   0.00213   0.82794   1.000
    C161    C    0.36322   0.81403   0.69390   1.000
    C162    C    0.86321   0.81403   0.69300   1.000
    C163    C    0.35922   0.98739   0.55963   1.000
    C164    C    0.85921   0.98739   0.55963   1.000
    C165    C    0.19909   0.36147   0.92860   1.000
    C166    C    0.69909   0.36147   0.92860   1.000
    C167    C    0.18191   0.36518   0.71547   1.000
    C168    C    0.68190   0.36518   0.71547   1.000
    C169    C    0.23761   0.59465   0.86220   1.000
    C170    C    0.73760   0.59465   0.86220   1.000
    C171    C    0.33067   0.50204   0.67202   1.000
    C172    C    0.83066   0.50204   0.67202   1.000
    C173    C    0.38676   0.31406   0.80673   1.000
    C174    C    0.88675   0.31406   0.80673   1.000
    C175    C    0.39087   0.48732   0.94032   1.000
    C176    C    0.89086   0.48732   0.94032   1.000
    C177    C    0.44969   0.64015   0.57144   1.000
    C178    C    0.94969   0.64015   0.57144   1.000
    C179    C    0.43157   0.63468   0.78465   1.000
    C180    C    0.93157   0.63468   0.78465   1.000
    C181    C    0.48765   0.40555   0.63775   1.000
    C182    C    0.98764   0.40555   0.63775   1.000
    C183    C    0.08067   0.49801   0.82791   1.000
    C184    C    0.58066   0.49801   0.82791   1.000
    C185    C    0.13676   0.68597   0.69379   1.000
    C186    C    0.63675   0.68597   0.69379   1.000
    C187    C    0.14073   0.51261   0.55962   1.000
    C188    C    0.64072   0.51262   0.55962   1.000
    C189    C    0.29946   0.14012   0.93005   1.000
    C190    C    0.79945   0.14012   0.93005   1.000
    C191    C    0.31847   0.13494   0.71666   1.000
    C192    C    0.81846   0.13494   0.71666   1.000
    C193    C    0.26245   0.90554   0.86220   1.000
    C194    C    0.76244   0.90554   0.86220   1.000
    C195    C    0.16931   0.99789   0.67213   1.000
    C196    C    0.66930   0.99789   0.67213   1.000
    C197    C    0.11304   0.18626   0.80528   1.000
    C198    C    0.61303   0.18626   0.80528   1.000
    C199    C    0.10911   0.01284   0.94037   1.000
    C200    C    0.60911   0.01285   0.94037   1.000
    C201    C    0.44971   0.14018   0.42852   1.000
    C202    C    0.94970   0.14018   0.42852   1.000
    C203    C    0.43156   0.13468   0.21530   1.000
    C204    C    0.93155   0.13468   0.21531   1.000
    C205    C    0.48774   0.90564   0.36232   1.000
    C206    C    0.98773   0.90564   0.36232   1.000
    C207    C    0.08063   0.99786   0.17204   1.000
    O208    O    0.90509   0.47205   0.23266   1.000
    O209    O    0.47504   0.52514   0.15287   1.000
    O210    O    0.97503   0.52514   0.15287   1.000
    O211    O    0.42406   0.33355   0.31234   1.000
    O212    O    0.92406   0.33355   0.31234   1.000
    O213    O    0.39723   0.49073   0.49300   1.000
    O214    O    0.89722   0.49073   0.49370   1.000
    O215    O    0.31425   0.35462   0.29653   1.000
    C216    C    0.64076   0.01260   0.44035   1.000
    C217    C    0.30090   0.63853   0.07138   1.000
    C218    C    0.80089   0.63853   0.07138   1.000
    C219    C    0.31809   0.63481   0.28451   1.000
    C220    C    0.81808   0.63481   0.28451   1.000
    C221    C    0.26238   0.40534   0.13778   1.000
    C222    C    0.76238   0.40534   0.13778   1.000
    C223    C    0.16933   0.49795   0.32796   1.000
    C224    C    0.66932   0.49795   0.32796   1.000
    C225    C    0.11323   0.68593   0.19325   1.000
    C226    C    0.61323   0.68593   0.19325   1.000
    C227    C    0.10912   0.51268   0.05966   1.000
    C228    C    0.60911   0.51267   0.05966   1.000
    C229    C    0.05030   0.35984   0.42854   1.000
    C230    C    0.55029   0.35984   0.42855   1.000
    C231    C    0.06842   0.36531   0.21534   1.000
    C232    C    0.56841   0.36531   0.21533   1.000
    C233    C    0.01234   0.59445   0.36223   1.000
    C234    C    0.51233   0.59445   0.36223   1.000
    C235    C    0.41932   0.50198   0.17208   1.000
    C236    C    0.91932   0.50199   0.17208   1.000
    C237    C    0.36323   0.31402   0.30619   1.000
    C238    C    0.86323   0.31402   0.30600   1.000
    C239    C    0.35927   0.48738   0.44036   1.000
    C240    C    0.85926   0.48738   0.44036   1.000
    C241    C    0.20054   0.85987   0.06994   1.000
    C242    C    0.70053   0.85987   0.06994   1.000
    C243    C    0.18153   0.86505   0.28333   1.000
    C244    C    0.68152   0.86505   0.28333   1.000
    C245    C    0.23754   0.09445   0.13777   1.000
    C246    C    0.73754   0.09445   0.13777   1.000
    C247    C    0.33069   0.00210   0.32785   1.000
    C248    C    0.83068   0.00210   0.32785   1.000
    C249    C    0.38696   0.81373   0.19471   1.000
    C250    C    0.88695   0.81373   0.19471   1.000
    C251    C    0.39088   0.98715   0.05962   1.000
    C252    C    0.89087   0.98715   0.05962   1.000
    O253    O    0.01385   0.91619   0.58384   1.000
    O254    O    0.51384   0.91619   0.58384   1.000
    O255    O    0.05481   0.80402   0.60940   1.000
    O256    O    0.55480   0.80402   0.60941   1.000
    O257    O    0.04412   0.92128   0.75289   1.000
    O258    O    0.54411   0.92128   0.75289   1.000
    O259    O    0.05564   0.80014   0.77188   1.000
    O260    O    0.55563   0.80014   0.77188   1.000
    O261    O    0.01052   0.04162   0.68310   1.000
    O262    O    0.51052   0.04162   0.68310   1.000
    O263    O    0.00002   0.09015   0.57167   1.000
    O264    O    0.50001   0.09015   0.57167   1.000
    O265    O    0.40511   0.97209   0.76742   1.000
    O266    O    0.90510   0.97209   0.76742   1.000
    O267    O    0.47511   0.02528   0.84712   1.000
    O268    O    0.97510   0.02528   0.84712   1.000
    O269    O    0.81424   0.85464   0.70362   1.000
    O270    O    0.37617   0.98084   0.62629   1.000
    O271    O    0.87617   0.98084   0.62629   1.000
    O272    O    0.23609   0.41734   0.91630   1.000
    O273    O    0.73608   0.41734   0.91630   1.000
    O274    O    0.19436   0.30573   0.89065   1.000
    O275    O    0.69435   0.30573   0.89065   1.000
    O276    O    0.20596   0.42131   0.74722   1.000
    O277    O    0.70595   0.42131   0.74722   1.000
    O278    O    0.19472   0.30007   0.72861   1.000
    O279    O    0.69471   0.30007   0.72860   1.000
    O280    O    0.23955   0.54208   0.81652   1.000
    O281    O    0.73954   0.54208   0.81652   1.000
    O282    O    0.24992   0.59029   0.92816   1.000
    O283    O    0.74991   0.59029   0.92816   1.000
    O284    O    0.34495   0.47204   0.73258   1.000
    O285    O    0.84494   0.47204   0.73258   1.000
    O286    O    0.27489   0.52514   0.65200   1.000
    O287    O    0.77488   0.52514   0.65200   1.000
    O288    O    0.32593   0.33367   0.81290   1.000
    O289    O    0.82593   0.33367   0.81290   1.000
    O290    O    0.35291   0.49065   0.99362   1.000
    O291    O    0.85291   0.49064   0.99362   1.000
    O292    O    0.43569   0.35452   0.79654   1.000
    O293    O    0.93568   0.35452   0.79654   1.000
    O294    O    0.37391   0.48082   0.87367   1.000
    O295    O    0.87390   0.48082   0.87367   1.000
    O296    O    0.48614   0.58377   0.58383   1.000
    O297    O    0.98613   0.58377   0.58383   1.000
    O298    O    0.44514   0.69592   0.60940   1.000
    O299    O    0.94514   0.69592   0.60940   1.000
    O300    O    0.45586   0.57872   0.75286   1.000
    O301    O    0.95585   0.57872   0.75285   1.000
    O302    O    0.44438   0.69986   0.77188   1.000
    O303    O    0.94437   0.69986   0.77187   1.000
    O304    O    0.48942   0.45820   0.68330   1.000
    O305    O    0.98942   0.45820   0.68333   1.000
    O306    O    0.49995   0.40982   0.57179   1.000
    O307    O    0.99995   0.40982   0.57179   1.000
    O308    O    0.09490   0.52794   0.76732   1.000
    O309    O    0.59489   0.52794   0.76730   1.000
    O310    O    0.02496   0.47485   0.84711   1.000
    O311    O    0.52495   0.47486   0.84710   1.000
    O312    O    0.07593   0.66645   0.68765   1.000
    O313    O    0.57592   0.66645   0.68765   1.000
    O314    O    0.10277   0.50926   0.50629   1.000
    O315    O    0.60276   0.50926   0.50629   1.000
    O316    O    0.18575   0.64537   0.70345   1.000
    O317    O    0.68574   0.64537   0.70345   1.000
    O318    O    0.12376   0.51918   0.62620   1.000
    O319    O    0.62375   0.51917   0.62620   1.000
    O320    O    0.26378   0.08354   0.91641   1.000
    O321    O    0.76377   0.08354   0.91641   1.000
    O322    O    0.30312   0.19688   0.89347   1.000
    O323    O    0.80312   0.19688   0.89347   1.000
    O324    O    0.29392   0.07857   0.74741   1.000
    O325    O    0.79392   0.07857   0.74741   1.000
    O326    O    0.30592   0.19990   0.73073   1.000
    O327    O    0.80592   0.19990   0.73073   1.000
    O328    O    0.26053   0.95820   0.81660   1.000
    O329    O    0.76053   0.95820   0.81660   1.000
    O330    O    0.25016   0.90982   0.92818   1.000
    O331    O    0.75015   0.90982   0.92818   1.000
    O332    O    0.15507   0.02786   0.73272   1.000
    O333    O    0.65507   0.02786   0.73272   1.000
    O334    O    0.22507   0.97486   0.65284   1.000
    O335    O    0.72507   0.97486   0.65284   1.000
    O336    O    0.17376   0.16666   0.81269   1.000
    O337    O    0.67375   0.16666   0.81269   1.000
    O338    O    0.14714   0.00929   0.99363   1.000
    O339    O    0.64713   0.00929   0.99363   1.000
    O340    O    0.06424   0.14574   0.79453   1.000
    O341    O    0.56424   0.14574   0.79453   1.000
    O342    O    0.12600   0.01959   0.87373   1.000
    O343    O    0.62599   0.01959   0.87373   1.000
    O344    O    0.48615   0.08380   0.41615   1.000
    O345    O    0.98614   0.08380   0.41615   1.000
    O346    O    0.44518   0.19597   0.39057   1.000
    O347    O    0.94518   0.19597   0.39057   1.000
    O348    O    0.45587   0.07871   0.24710   1.000
    O349    O    0.95587   0.07871   0.24700   1.000
    O350    O    0.44435   0.19986   0.22810   1.000
    O351    O    0.94435   0.19986   0.22810   1.000
    O352    O    0.48947   0.95837   0.31683   1.000
    O353    O    0.98946   0.95837   0.31683   1.000
    O354    O    0.49998   0.90985   0.42831   1.000
    O355    O    0.99997   0.90985   0.42831   1.000
    O356    O    0.09489   0.02791   0.23257   1.000
    O357    O    0.59488   0.02790   0.23257   1.000
    O358    O    0.02488   0.97471   0.15280   1.000
    O359    O    0.52487   0.97471   0.15280   1.000
    O360    O    0.07596   0.16644   0.31230   1.000
    O361    O    0.57595   0.16644   0.31230   1.000
    O362    O    0.10282   0.00927   0.49364   1.000
    O363    O    0.60281   0.00927   0.49364   1.000
    O364    O    0.18575   0.14535   0.29637   1.000
    O365    O    0.68574   0.14535   0.29638   1.000
    O366    O    0.12382   0.01916   0.37369   1.000
    O367    O    0.62381   0.01915   0.37369   1.000
    O368    O    0.26391   0.58266   0.08367   1.000
    O369    O    0.76390   0.58266   0.08367   1.000
    O370    O    0.30563   0.69426   0.10933   1.000
    O371    O    0.80563   0.69426   0.10933   1.000
    O372    O    0.29404   0.57868   0.25277   1.000
    O373    O    0.79403   0.57868   0.25277   1.000
    O374    O    0.30527   0.69992   0.27138   1.000
    O375    O    0.80526   0.69992   0.27138   1.000
    O376    O    0.26045   0.45791   0.18346   1.000
    O377    O    0.76044   0.45791   0.18346   1.000
    O378    O    0.25007   0.40970   0.07182   1.000
    O379    O    0.75006   0.40970   0.07182   1.000
    O380    O    0.15505   0.52796   0.26740   1.000
    O381    O    0.65504   0.52796   0.26740   1.000
    O382    O    0.22510   0.47485   0.34719   1.000
    O383    O    0.72510   0.47486   0.34719   1.000
    O384    O    0.17406   0.66632   0.18704   1.000
    O385    O    0.67405   0.66632   0.18704   1.000
    O386    O    0.14708   0.50935   0.00637   1.000
    O387    O    0.64707   0.50935   0.00637   1.000
    O388    O    0.06430   0.64548   0.20345   1.000
    O389    O    0.56430   0.64548   0.20340   1.000
    O390    O    0.12609   0.51917   0.12631   1.000
    O391    O    0.62608   0.51918   0.12631   1.000
    O392    O    0.01385   0.41622   0.41615   1.000
    O393    O    0.51385   0.41622   0.41615   1.000
    O394    O    0.05485   0.30407   0.39058   1.000
    O395    O    0.55484   0.30407   0.39058   1.000
    O396    O    0.04413   0.42127   0.24713   1.000
    O397    O    0.54413   0.42127   0.24713   1.000
    O398    O    0.05561   0.30013   0.22811   1.000
    O399    O    0.55561   0.30013   0.22811   1.000
    O400    O    0.01057   0.54179   0.31665   1.000
    O401    O    0.51056   0.54179   0.31665   1.000
    O402    O    0.00004   0.59017   0.42819   1.000
    O403    O    0.50003   0.59017   0.42819   1.000
    O404    O    0.40510   0.47206   0.23266   1.000
    O405    O    0.81424   0.35462   0.29653   1.000
    O406    O    0.37623   0.48082   0.37374   1.000
    O407    O    0.87623   0.48082   0.37374   1.000
    O408    O    0.23621   0.91646   0.08358   1.000
    O409    O    0.73620   0.91646   0.08358   1.000
    O410    O    0.19687   0.80311   0.10652   1.000
    O411    O    0.69686   0.80311   0.10652   1.000
    O412    O    0.20607   0.92142   0.25258   1.000
    O413    O    0.70606   0.92142   0.25258   1.000
    O414    O    0.19407   0.80009   0.26925   1.000
    O415    O    0.69406   0.80009   0.26925   1.000
    O416    O    0.23946   0.04179   0.18332   1.000
    O417    O    0.73945   0.04179   0.18332   1.000
    O418    O    0.24984   0.09017   0.07180   1.000
    O419    O    0.74983   0.09017   0.07180   1.000
    O420    O    0.34492   0.97213   0.26727   1.000
    O421    O    0.84491   0.97213   0.26727   1.000
    O422    O    0.27492   0.02513   0.34714   1.000
    O423    O    0.77491   0.02513   0.34714   1.000
    O424    O    0.32623   0.83333   0.18729   1.000
    O425    O    0.82622   0.83333   0.18729   1.000
    O426    O    0.35286   0.99070   0.00630   1.000
    O427    O    0.85285   0.99070   0.00630   1.000
    O428    O    0.43575   0.85425   0.20545   1.000
    O429    O    0.93575   0.85425   0.20540   1.000
    O430    O    0.37399   0.98040   0.12626   1.000
    O431    O    0.87399   0.98040   0.12626   1.000
loop_
    _geom_bond_atom_site_label_1
    _geom_bond_atom_site_label_2
    _geom_bond_distance
    _geom_bond_site_symmetry_2
    _ccdc_geom_bond_type
    Zn43   O387      2.09489      .   S
    Zn43   O379      2.13066      .   S
    Zn43   O283      2.13092  1_554   S
    Zn43   O291      2.09486  1_554   S
    Zn46   O426      2.09351  1_545   S
    Zn46   O418      2.12875      .   S
    Zn46   O330      2.12912  1_544   S
    Zn46   O338      2.09355  1_554   S
    Zn47   O427      2.09349  1_545   S
    Zn47   O419      2.12875      .   S
    Zn47   O331      2.12912  1_544   S
    Zn47   O339      2.09357  1_554   S
    O427   C252      1.25465      .   S
    O426   C251      1.25466      .   S
    O387   C228      1.25371      .   S
    O386   C227      1.25373      .   S
    O386   Zn42      2.09486  1_554   S
    H142   C242      1.10294      .   S
    H141   C241      1.10263      .   S
    H112   C217      1.10261      .   S
    H113   C218      1.10257      .   S
    H151   C251      1.10576      .   S
    H152   C252      1.10576      .   S
    H123   C228      1.10581      .   S
    H122   C227      1.10580      .   S
    C251   O430      1.28827      .   S
    C252   O431      1.28828      .   S
    C228   O391      1.28819      .   S
    C227   O390      1.28819      .   S
    C241   O408      1.29379      .   S
    C241   O410      1.24861      .   S
    C242   O409      1.29378      .   S
    C242   O411      1.24863      .   S
    C217   O368      1.29389      .   S
    C217   O370      1.24839      .   S
    C218   O369      1.29390      .   S
    C218   O371      1.24840      .   S
    O418   C245      1.25087      .   S
    O419   C246      1.25086      .   S
    O378   C221      1.25067      .   S
    O378   Zn42      2.13080  1_554   S
    O379   C222      1.25067      .   S
    O408   Zn27      2.05857      .   S
    O409   Zn28      2.05857      .   S
    O368   Zn19      2.05759      .   S
    O369   Zn20      2.05759      .   S
    O410   Zn38      2.10166      .   S
    O411   Zn39      2.10166      .   S
    O370   Zn38      2.10637      .   S
    O371   Zn39      2.10636      .   S
    O430   Zn17      2.16130      .   S
    O431   Zn18      2.16129      .   S
    O391   Zn26      2.16189      .   S
    O390   Zn25      2.16190      .   S
    H104   C207      1.10313      .   S
    H105   C100      1.10315      .   S
    H129   C236      1.10315      .   S
    H128   C235      1.10322      .   S
    C246   H148      1.10597      .   S
    C246   O417      1.28670      .   S
    C245   H147      1.10596      .   S
    C245   O416      1.28670      .   S
    C222   H119      1.10604      .   S
    C222   O377      1.28720      .   S
    C221   H118      1.10604      .   S
    C221   O376      1.28720      .   S
    O358   C207      1.25886      .   S
    O358   Zn18      2.06141  1_455   S
    O359   C100      1.25889      .   S
    O359   Zn17      2.06117      .   S
    O210   C236      1.25835      .   S
    O210   Zn25      2.06096  1_655   S
    O209   C235      1.25836      .   S
    O209   Zn26      2.06074      .   S
    C100   O357      1.28427  1_565   S
    C207   O356      1.28430  1_565   S
    C236   O208      1.28428      .   S
    C235   O404      1.28423      .   S
    H98    C203      1.10735      .   S
    H99    C204      1.10743      .   S
    H127   C232      1.10726      .   S
    H126   C231      1.10729      .   S
    Zn27   O424      2.09321      .   S
    Zn27   O412      2.14765      .   S
    Zn27   O420      2.13665      .   S
    Zn28   O425      2.09321      .   S
    Zn28   O413      2.14763      .   S
    Zn28   O421      2.13665      .   S
    Zn20   O385      2.08865      .   S
    Zn20   O373      2.14995      .   S
    Zn20   O381      2.13718      .   S
    Zn19   O384      2.08867      .   S
    Zn19   O372      2.14999      .   S
    Zn19   O380      2.13718      .   S
    O416   Zn29      2.12083      .   S
    O417   Zn30      2.12083      .   S
    O377   Zn22      2.11880      .   S
    O376   Zn21      2.11880      .   S
    O385   C226      1.28879      .   S
    O384   C225      1.28879      .   S
    O425   C250      1.28884      .   S
    O424   C249      1.28884      .   S
    Zn38   O414      2.10177      .   S
    Zn38   O374      2.11398      .   S
    Zn39   O415      2.10177      .   S
    Zn39   O375      2.11397      .   S
    H120   C225      1.10208      .   S
    H121   C226      1.10210      .   S
    H149   C249      1.10205      .   S
    H150   C250      1.10205      .   S
    C225   O388      1.25489      .   S
    C226   O389      1.25475      .   S
    C249   O428      1.25495      .   S
    C250   O429      1.25479      .   S
    O389   Zn26      2.06396      .   S
    O388   Zn25      2.06388      .   S
    O429   Zn18      2.06442      .   S
    O428   Zn17      2.06431      .   S
    C203   O350      1.25118      .   S
    C203   O348      1.28522      .   S
    C204   O351      1.25117      .   S
    C204   O349      1.28432      .   S
    C232   O399      1.25133      .   S
    C232   O397      1.28512      .   S
    C231   O398      1.25130      .   S
    C231   O396      1.28509      .   S
    Zn26   O401      2.11921      .   S
    Zn25   O400      2.11921      .   S
    Zn17   O352      2.12006      .   S
    Zn18   O353      2.12005      .   S
    O350   Zn37      2.10121      .   S
    O351   Zn36      2.10135  1_655   S
    O398   Zn36      2.10092      .   S
    O399   Zn37      2.10095      .   S
    O357   Zn16      2.13867      .   S
    O356   Zn15      2.13867      .   S
    O404   Zn23      2.13630      .   S
    O208   Zn24      2.13627      .   S
    O349   Zn15      2.15335  1_655   S
    O348   Zn16      2.15197      .   S
    O397   Zn23      2.15220      .   S
    O396   Zn24      2.15237  1_455   S
    O412   C243      1.28517      .   S
    O413   C244      1.28518      .   S
    O372   C219      1.28583      .   S
    O373   C220      1.28588      .   S
    O421   C248      1.28434  1_565   S
    O420   C247      1.28433  1_565   S
    O380   C223      1.28433      .   S
    O381   C224      1.28434      .   S
    O414   C243      1.25066      .   S
    O415   C244      1.25067      .   S
    O374   C219      1.25080      .   S
    O375   C220      1.25080      .   S
    C244   H144      1.09929      .   S
    C243   H143      1.10731      .   S
    C219   H114      1.10749      .   S
    C220   H115      1.10743      .   S
    Zn22   O405      2.06234      .   S
    Zn22   O383      2.06079      .   S
    Zn22   O407      2.16343      .   S
    Zn21   O215      2.06234      .   S
    Zn21   O382      2.06079      .   S
    Zn21   O406      2.16345      .   S
    Zn29   O364      2.06146      .   S
    Zn29   O422      2.05997      .   S
    Zn29   O366      2.16273      .   S
    Zn30   O365      2.06147      .   S
    Zn30   O423      2.05997      .   S
    Zn30   O367      2.16274      .   S
    O364   C101      1.25498      .   S
    O365   C102      1.25494      .   S
    O405   C238      1.25431      .   S
    O215   C237      1.25482      .   S
    C238   H138      1.10227      .   S
    C238   O212      1.28919      .   S
    C102   H109      1.10200      .   S
    C102   O361      1.28874      .   S
    C101   H108      1.10194      .   S
    C101   O360      1.28874      .   S
    C237   H137      1.10204      .   S
    C237   O211      1.28885      .   S
    Zn37   O346      2.11533      .   S
    Zn37   O395      2.11524      .   S
    Zn36   O347      2.11544  1_455   S
    Zn36   O394      2.11525      .   S
    O361   Zn16      2.09053      .   S
    O360   Zn15      2.09053      .   S
    O211   Zn23      2.09113      .   S
    O212   Zn24      2.09112      .   S
    O401   C234      1.28700      .   S
    O400   C233      1.28699      .   S
    O353   C206      1.28699      .   S
    O352   C205      1.28698      .   S
    Zn24   O392      2.05560  1_655   S
    Zn23   O393      2.05546      .   S
    Zn15   O345      2.05611  1_455   S
    Zn16   O344      2.05598      .   S
    C248   O423      1.25829      .   S
    C248   H146      1.10321      .   S
    C247   O422      1.25830      .   S
    C247   H145      1.10321      .   S
    C224   O383      1.25828      .   S
    C224   H117      1.10315      .   S
    C223   O382      1.25828      .   S
    C223   H116      1.10317      .   S
    H107   C206      1.10594      .   S
    H106   C205      1.10592      .   S
    H130   C233      1.10602      .   S
    H131   C234      1.10601      .   S
    C234   O403      1.25074      .   S
    C233   O402      1.25075      .   S
    C206   O355      1.25077      .   S
    C205   O354      1.25077      .   S
    O366   C103      1.28835      .   S
    O367   C216      1.28834      .   S
    O406   C239      1.28796      .   S
    O407   C240      1.28796      .   S
    O346   C201      1.24876      .   S
    O347   C202      1.24876      .   S
    O395   C230      1.24878      .   S
    O394   C229      1.24870      .   S
    O345   C202      1.29410      .   S
    O393   C230      1.29418      .   S
    O392   C229      1.29416      .   S
    O344   C201      1.29410      .   S
    O402   Zn44      2.12873      .   S
    O403   Zn45      2.12873      .   S
    O355   Zn40      2.12713  1_565   S
    O354   Zn41      2.12713  1_565   S
    C201   H96       1.10282      .   S
    C202   H97       1.10280      .   S
    C229   H124      1.10289      .   S
    C230   H125      1.10273      .   S
    C103   H110      1.10578      .   S
    C103   O362      1.25374      .   S
    C216   H111      1.10581      .   S
    C216   O363      1.25375      .   S
    C239   H139      1.10576      .   S
    C239   O213      1.24383      .   S
    C240   H140      1.10576      .   S
    C240   O214      1.25403      .   S
    O213   Zn45      2.09265      .   S
    O362   Zn40      2.09305  1_455   S
    O363   Zn41      2.09303      .   S
    O214   Zn44      2.09217  1_655   S
    Zn40   O135      2.09328  1_545   S
    Zn40   O263      2.12699  1_655   S
    Zn41   O134      2.09302  1_545   S
    Zn41   O264      2.12699      .   S
    Zn45   O315      2.09192      .   S
    Zn45   O306      2.12873      .   S
    Zn44   O314      2.09192      .   S
    Zn44   O307      2.12873  1_455   S
    O315   C188      1.25388      .   S
    O314   C187      1.25389      .   S
    O134   C163      1.25376      .   S
    O135   C164      1.25377      .   S
    H72    C177      1.10288      .   S
    H73    C178      1.10288      .   S
    H49    C154      1.10284      .   S
    H48    C153      1.10271      .   S
    H58    C163      1.10595      .   S
    H59    C164      1.10595      .   S
    H83    C188      1.10578      .   S
    H82    C187      1.10575      .   S
    C187   O318      1.28726      .   S
    C188   O319      1.28725      .   S
    C163   O270      1.28834      .   S
    C164   O271      1.28834      .   S
    C178   O297      1.29416      .   S
    C178   O299      1.24869      .   S
    C177   O296      1.29415      .   S
    C177   O298      1.24871      .   S
    C154   O254      1.29414      .   S
    C154   O256      1.24875      .   S
    C153   O253      1.29415      .   S
    C153   O255      1.24866      .   S
    O264   C158      1.25077      .   S
    O263   C157      1.25077      .   S
    O306   C181      1.25075      .   S
    O307   C182      1.25074      .   S
    O296   Zn8       2.05453      .   S
    O297   Zn7       2.05466  1_655   S
    O254   Zn32      2.05582      .   S
    O253   Zn0       2.05596  1_455   S
    O255   Zn31      2.11576  1_455   S
    O299   Zn31      2.11535      .   S
    O298   Zn33      2.11537      .   S
    O256   Zn33      2.11545      .   S
    O319   Zn6       2.16400      .   S
    O318   Zn5       2.16401      .   S
    O270   Zn13      2.16269      .   S
    O271   Zn14      2.16269      .   S
    H65    C172      1.10319      .   S
    H64    C171      1.10319      .   S
    H88    C195      1.10310      .   S
    H89    C196      1.10309      .   S
    C157   H54       1.10586      .   S
    C157   O261      1.28637      .   S
    C158   H55       1.10585      .   S
    C158   O262      1.28638      .   S
    C182   H79       1.10603      .   S
    C182   O305      1.28699      .   S
    C181   H78       1.10602      .   S
    C181   O304      1.28662      .   S
    O287   C172      1.26250      .   S
    O287   Zn6       2.06910      .   S
    O286   C171      1.26249      .   S
    O286   Zn5       2.06909      .   S
    O334   C195      1.25827      .   S
    O334   Zn13      2.05997      .   S
    O335   C196      1.25829      .   S
    O335   Zn14      2.05997      .   S
    C172   O285      1.28434      .   S
    C171   O284      1.28435      .   S
    H63    C168      1.10736      .   S
    H62    C167      1.10737      .   S
    C195   O332      1.28450  1_565   S
    C196   O333      1.28449  1_565   S
    H86    C191      1.10725      .   S
    H87    C192      1.10723      .   S
    Zn7    O312      2.09123      .   S
    Zn7    O301      2.15313  1_455   S
    Zn7    O308      2.13715      .   S
    Zn8    O313      2.09123      .   S
    Zn8    O300      2.15299      .   S
    Zn8    O309      2.13684      .   S
    Zn0    O133      2.09053      .   S
    Zn0    O257      2.15230  1_655   S
    Zn0    O266      2.13882      .   S
    Zn32   O132      2.09055      .   S
    Zn32   O258      2.15206      .   S
    Zn32   O265      2.13880      .   S
    O261   Zn1       2.12089      .   S
    O262   Zn2       2.12089      .   S
    O304   Zn9       2.11986      .   S
    O305   Zn10      2.11936      .   S
    O313   C186      1.28884      .   S
    O312   C185      1.28886      .   S
    O133   C162      1.28737      .   S
    O132   C161      1.28876      .   S
    H81    C186      1.10213      .   S
    H80    C185      1.10202      .   S
    H57    C162      1.10107      .   S
    H56    C161      1.10199      .   S
    Zn33   O260      2.10106      .   S
    Zn33   O302      2.10092      .   S
    Zn31   O303      2.10082      .   S
    Zn31   O259      2.10122  1_655   S
    C162   O269      1.25746      .   S
    C186   O317      1.25483      .   S
    C185   O316      1.25482      .   S
    C161   O136      1.25494      .   S
    O317   Zn6       2.06236      .   S
    O316   Zn5       2.06236      .   S
    O136   Zn13      2.06148      .   S
    O269   Zn14      2.06146      .   S
    Zn14   O329      2.11982      .   S
    Zn13   O328      2.11982      .   S
    Zn6    O281      2.11883      .   S
    Zn5    O280      2.11882      .   S
    C168   O279      1.25080      .   S
    C168   O277      1.28596      .   S
    C167   O278      1.25082      .   S
    C167   O276      1.28595      .   S
    C192   O327      1.25062      .   S
    C192   O325      1.28520      .   S
    C191   O326      1.25062      .   S
    C191   O324      1.28520      .   S
    O279   Zn35      2.11399      .   S
    O278   Zn34      2.11385      .   S
    O327   Zn35      2.10179      .   S
    O326   Zn34      2.10179      .   S
    O284   Zn3       2.13718      .   S
    O285   Zn4       2.13718      .   S
    O332   Zn11      2.13580      .   S
    O333   Zn12      2.13581      .   S
    O277   Zn4       2.14987      .   S
    O276   Zn3       2.14987      .   S
    O325   Zn12      2.14690      .   S
    O324   Zn11      2.14690      .   S
    O301   C180      1.28511      .   S
    O300   C179      1.28508      .   S
    O258   C156      1.28516      .   S
    O257   C155      1.28513      .   S
    O309   C184      1.28474      .   S
    O308   C183      1.28439      .   S
    O265   C159      1.28415  1_565   S
    O266   C160      1.28414  1_565   S
    O303   C180      1.25132      .   S
    O259   C155      1.25118      .   S
    O260   C156      1.25119      .   S
    O302   C179      1.25130      .   S
    Zn2    O341      2.06433      .   S
    Zn2    O267      2.06055      .   S
    Zn2    O343      2.16141      .   S
    Zn1    O340      2.06435      .   S
    Zn1    O268      2.06079  1_455   S
    Zn1    O342      2.16142      .   S
    Zn9    O292      2.06385      .   S
    Zn9    O311      2.06054      .   S
    Zn9    O294      2.16176      .   S
    Zn10   O293      2.06385      .   S
    Zn10   O310      2.06087  1_655   S
    Zn10   O295      2.16176      .   S
    C180   H75       1.10729      .   S
    C179   H74       1.10728      .   S
    C156   H51       1.10738      .   S
    C155   H50       1.10731      .   S
    O340   C197      1.25498      .   S
    O341   C198      1.25496      .   S
    O293   C174      1.25486      .   S
    O292   C173      1.25486      .   S
    C198   H93       1.10203      .   S
    C198   O337      1.28884      .   S
    C197   H92       1.10203      .   S
    C197   O336      1.28884      .   S
    C173   H68       1.10210      .   S
    C173   O288      1.28873      .   S
    C174   H69       1.10210      .   S
    C174   O289      1.28873      .   S
    Zn34   O274      2.10640      .   S
    Zn34   O322      2.10176      .   S
    Zn35   O275      2.10640      .   S
    Zn35   O323      2.10174      .   S
    O337   Zn12      2.09314      .   S
    O336   Zn11      2.09314      .   S
    O289   Zn4       2.08871      .   S
    O288   Zn3       2.08871      .   S
    O281   C170      1.28718      .   S
    O280   C169      1.28718      .   S
    O328   C193      1.28734      .   S
    O329   C194      1.28734      .   S
    Zn4    O273      2.05744      .   S
    Zn3    O272      2.05744      .   S
    Zn11   O320      2.05949      .   S
    Zn12   O321      2.05949      .   S
    C183   O310      1.25833      .   S
    C183   H76       1.10306      .   S
    C184   O311      1.25824      .   S
    C184   H77       1.10230      .   S
    C160   O268      1.25855      .   S
    C160   H53       1.10315      .   S
    C159   O267      1.25855      .   S
    C159   H52       1.10313      .   S
    H90    C193      1.10586      .   S
    H91    C194      1.10587      .   S
    H67    C170      1.10605      .   S
    H66    C169      1.10605      .   S
    C170   O283      1.25067      .   S
    C194   O331      1.25104      .   S
    C193   O330      1.25105      .   S
    C169   O282      1.25068      .   S
    O294   C175      1.28819      .   S
    O295   C176      1.28819      .   S
    O343   C200      1.28826      .   S
    O342   C199      1.28827      .   S
    O274   C165      1.24840      .   S
    O275   C166      1.24841      .   S
    O323   C190      1.24863      .   S
    O322   C189      1.24864      .   S
    O272   C165      1.29394      .   S
    O273   C166      1.29393      .   S
    O320   C189      1.29379      .   S
    O321   C190      1.29380      .   S
    O282   Zn42      2.13078      .   S
    C166   H61       1.10263      .   S
    C165   H60       1.10262      .   S
    C190   H85       1.10254      .   S
    C189   H84       1.10148      .   S
    C176   H71       1.10580      .   S
    C176   O291      1.25386      .   S
    C175   H70       1.10582      .   S
    C175   O290      1.25387      .   S
    C199   H94       1.10576      .   S
    C199   O338      1.25378      .   S
    C200   H95       1.10576      .   S
    C200   O339      1.25378      .   S
    O290   Zn42      2.09489      .   S
    O253   Zn40      2.20867  1_465   S
    O254   Zn41      2.20869  1_565   S
    O257   Zn1       2.18293  1_565   S
    O258   Zn2       2.18295  1_565   S
    O261   Zn0       2.13630  1_445   S
    O262   Zn32      2.13616  1_545   S
    O265   Zn13      2.18016      .   S
    O266   Zn14      2.18014      .   S
    O132   Zn33      2.17612      .   S
    O133   Zn31      2.17614      .   S
    O270   Zn32      2.17486      .   S
    O271   Zn0       2.17487      .   S
    O272   Zn42      2.19234      .   S
    O273   Zn43      2.19245  1_556   S
    O276   Zn5       2.18195      .   S
    O277   Zn6       2.18195      .   S
    O280   Zn3       2.13906      .   S
    O281   Zn4       2.13906      .   S
    O284   Zn9       2.17864      .   S
    O285   Zn10      2.17864      .   S
    O288   Zn34      2.17907      .   S
    O289   Zn35      2.17907      .   S
    O294   Zn3       2.17604      .   S
    O295   Zn4       2.17604      .   S
    O296   Zn45      2.20833      .   S
    O297   Zn44      2.20836  1_655   S
    O300   Zn9       2.18309      .   S
    O301   Zn10      2.18313      .   S
    O304   Zn8       2.13878      .   S
    O305   Zn7       2.13893  1_655   S
    O308   Zn5       2.17977      .   S
    O309   Zn6       2.17961      .   S
    O312   Zn31      2.17521  1_455   S
    O313   Zn33      2.17502      .   S
    O318   Zn7       2.17491      .   S
    O319   Zn8       2.17491      .   S
    O320   Zn46      2.20210  1_556   S
    O321   Zn47      2.20209  1_556   S
    O324   Zn13      2.18156  1_545   S
    O325   Zn14      2.18156  1_545   S
    O328   Zn11      2.13905  1_565   S
    O329   Zn12      2.13905  1_565   S
    O332   Zn1       2.17856      .   S
    O333   Zn2       2.17857      .   S
    O336   Zn34      2.17798      .   S
    O337   Zn35      2.17798      .   S
    O342   Zn11      2.17630      .   S
    O343   Zn12      2.17631      .   S
    O344   Zn41      2.20842      .   S
    O345   Zn40      2.20847      .   S
    O348   Zn17      2.18299  1_545   S
    O349   Zn18      2.18250  1_545   S
    O352   Zn16      2.13620  1_565   S
    O353   Zn15      2.13633  1_665   S
    O356   Zn29      2.18006      .   S
    O357   Zn30      2.18006      .   S
    O360   Zn36      2.17612      .   S
    O361   Zn37      2.17612      .   S
    O366   Zn15      2.17482      .   S
    O367   Zn16      2.17483      .   S
    O368   Zn42      2.19224  1_554   S
    O369   Zn43      2.19212      .   S
    O372   Zn21      2.18192      .   S
    O373   Zn22      2.18190      .   S
    O376   Zn19      2.13903      .   S
    O377   Zn20      2.13903      .   S
    O380   Zn25      2.17855      .   S
    O381   Zn26      2.17855      .   S
    O384   Zn38      2.17907      .   S
    O385   Zn39      2.17908      .   S
    O390   Zn19      2.17604      .   S
    O391   Zn20      2.17603      .   S
    O392   Zn44      2.20830      .   S
    O393   Zn45      2.20832      .   S
    O396   Zn25      2.18309      .   S
    O397   Zn26      2.18308      .   S
    O400   Zn24      2.13887  1_455   S
    O401   Zn23      2.13875      .   S
    O404   Zn21      2.17977      .   S
    O208   Zn22      2.17979      .   S
    O211   Zn37      2.17503      .   S
    O212   Zn36      2.17522  1_655   S
    O406   Zn23      2.17508      .   S
    O407   Zn24      2.17508      .   S
    O408   Zn46      2.20204  1_565   S
    O409   Zn47      2.20205  1_565   S
    O412   Zn29      2.18151  1_565   S
    O413   Zn30      2.18151  1_565   S
    O416   Zn27      2.13907  1_545   S
    O417   Zn28      2.13907  1_545   S
    O420   Zn17      2.17865      .   S
    O421   Zn18      2.17865      .   S
    O424   Zn38      2.17799      .   S
    O425   Zn39      2.17799      .   S
    O430   Zn27      2.17579      .   S
    O431   Zn28      2.17578      .   S
