# CIF file generated by openbabel 2.4.90, see http://openbabel.sf.net
data_I
_chemical_name_common ''
_cell_length_a 14.926
_cell_length_b 19.994
_cell_length_c 20.525
_cell_angle_alpha 89.998
_cell_angle_beta 94.364
_cell_angle_gamma 89.993
_space_group_name_H-M_alt 'P 1'
_space_group_name_Hall 'P 1'
loop_
    _symmetry_equiv_pos_as_xyz
    x,y,z
loop_
    _atom_site_label
    _atom_site_type_symbol
    _atom_site_fract_x
    _atom_site_fract_y
    _atom_site_fract_z
    _atom_site_occupancy
    N0      N    0.36309   0.46733   0.16702   1.000
    N1      N    0.13544   0.53278   0.17238   1.000
    N2      N    0.10504   0.26680   0.67079   1.000
    N3      N    0.86310   0.03269   0.16701   1.000
    N4      N    0.63546   0.96721   0.17238   1.000
    N5      N    0.13694   0.96732   0.83299   1.000
    N6      N    0.86460   0.46722   0.82761   1.000
    N7      N    0.36458   0.03279   0.82760   1.000
    N8      N    0.90780   0.76665   0.67464   1.000
    N9      N    0.60505   0.23320   0.67079   1.000
    N10     N    0.63695   0.53267   0.83298   1.000
    N11     N    0.09224   0.23336   0.32536   1.000
    N12     N    0.40779   0.73337   0.67463   1.000
    N13     N    0.59225   0.26664   0.32536   1.000
    N14     N    0.39499   0.76681   0.32919   1.000
    N15     N    0.89500   0.73321   0.32920   1.000
    Zr16    Zr   0.37652   0.45358   0.66742   1.000
    O17     O    0.37179   0.45832   0.52816   1.000
    O18     O    0.37298   0.45684   0.80661   1.000
    O19     O    0.28891   0.40335   0.66885   1.000
    O20     O    0.39294   0.53713   0.67035   1.000
    Zr21    Zr   0.12350   0.95357   0.33259   1.000
    O22     O    0.12704   0.95682   0.19340   1.000
    O23     O    0.12823   0.95830   0.47184   1.000
    O24     O    0.10708   0.03712   0.32965   1.000
    O25     O    0.21111   0.90335   0.33114   1.000
    Zr26    Zr   0.62352   0.54642   0.33258   1.000
    O27     O    0.62825   0.54169   0.47184   1.000
    O28     O    0.62707   0.54317   0.19339   1.000
    O29     O    0.60710   0.46287   0.32964   1.000
    O30     O    0.71113   0.59665   0.33114   1.000
    Zr31    Zr   0.87655   0.04644   0.66741   1.000
    O32     O    0.87181   0.04171   0.52815   1.000
    O33     O    0.87300   0.04319   0.80660   1.000
    O34     O    0.78894   0.09666   0.66884   1.000
    O35     O    0.89296   0.96288   0.67035   1.000
    Zr36    Zr   0.36269   0.04703   0.32805   1.000
    O37     O    0.37919   0.96334   0.32783   1.000
    O38     O    0.27525   0.09699   0.32697   1.000
    O39     O    0.36371   0.04239   0.46706   1.000
    O40     O    0.36169   0.04310   0.18854   1.000
    Zr41    Zr   0.63736   0.95298   0.67195   1.000
    O42     O    0.63634   0.95761   0.53293   1.000
    O43     O    0.63835   0.95690   0.81145   1.000
    O44     O    0.72480   0.90302   0.67303   1.000
    O45     O    0.62085   0.03667   0.67216   1.000
    Zr46    Zr   0.86270   0.45300   0.32806   1.000
    O47     O    0.87920   0.53668   0.32784   1.000
    O48     O    0.86170   0.45692   0.18855   1.000
    O49     O    0.86372   0.45763   0.46707   1.000
    O50     O    0.77526   0.40302   0.32698   1.000
    Zr51    Zr   0.13735   0.54701   0.67194   1.000
    O52     O    0.22479   0.59699   0.67302   1.000
    O53     O    0.12084   0.46333   0.67216   1.000
    O54     O    0.13834   0.54309   0.81145   1.000
    O55     O    0.13632   0.54238   0.53293   1.000
    O56     O    0.06779   0.61247   0.67268   1.000
    O57     O    0.56779   0.88753   0.67269   1.000
    O58     O    0.55452   0.61222   0.33163   1.000
    O59     O    0.93226   0.38754   0.32732   1.000
    O60     O    0.94554   0.11222   0.66836   1.000
    O61     O    0.43225   0.11248   0.32731   1.000
    O62     O    0.05450   0.88778   0.33164   1.000
    O63     O    0.44552   0.38779   0.66837   1.000
loop_
    _geom_bond_atom_site_label_1
    _geom_bond_atom_site_label_2
    _geom_bond_distance
    _geom_bond_site_symmetry_2
    _ccdc_geom_bond_type
    Zr16   O17       2.85538      .   S
    N0     O17       7.40588      .   S
    Zr16   O18       2.86212      .   S
    N0     O18       7.41305  1_554   S
    Zr16   O19       1.65094      .   S
    N2     O19       3.87384      .   S
    Zr16   O20       1.68882      .   S
    N12    O20       3.93041      .   S
    Zr21   O22       2.86215      .   S
    N5     O22       7.41316  1_556   S
    Zr21   O23       2.85517      .   S
    N5     O23       7.40595      .   S
    Zr21   O24       1.68883  1_565   S
    N11    O24       3.93043      .   S
    Zr21   O25       1.65070      .   S
    N14    O25       3.87330      .   S
    Zr26   O27       2.85536      .   S
    N10    O27       7.40581      .   S
    Zr26   O28       2.86214      .   S
    N10    O28       7.41311  1_556   S
    Zr26   O29       1.68882      .   S
    N13    O29       3.93041      .   S
    Zr26   O30       1.65093      .   S
    N15    O30       3.87384      .   S
    Zr31   O32       2.85546      .   S
    N3     O32       7.40579      .   S
    Zr31   O33       2.86212      .   S
    N3     O33       7.41306  1_554   S
    Zr31   O34       1.65068      .   S
    N9     O34       3.87331      .   S
    Zr31   O35       1.68883  1_545   S
    N8     O35       3.93042      .   S
    Zr36   O37       1.69126  1_545   S
    N14    O37       3.93651      .   S
    Zr36   O38       1.64231      .   S
    N11    O38       3.85760      .   S
    Zr36   O39       2.85361      .   S
    N7     O39       7.40151      .   S
    Zr36   O40       2.86338      .   S
    N7     O40       7.41465  1_556   S
    Zr41   O42       2.85372      .   S
    N4     O42       7.40185      .   S
    Zr41   O43       2.86327      .   S
    N4     O43       7.41431  1_554   S
    Zr41   O44       1.64231      .   S
    N8     O44       3.85759      .   S
    Zr41   O45       1.69126  1_565   S
    N9     O45       3.93652      .   S
    Zr46   O47       1.69124      .   S
    N15    O47       3.93646      .   S
    Zr46   O48       2.86339      .   S
    N6     O48       7.41456  1_556   S
    Zr46   O49       2.85363      .   S
    N6     O49       7.40157      .   S
    Zr46   O50       1.64264      .   S
    N13    O50       3.85826      .   S
    Zr51   O52       1.64264      .   S
    N12    O52       3.85827      .   S
    Zr51   O53       1.69124      .   S
    N2     O53       3.93646      .   S
    Zr51   O54       2.86335      .   S
    N1     O54       7.41446  1_554   S
    Zr51   O55       2.85366      .   S
    N1     O55       7.40166      .   S
    N8     O56       3.90123  1_655   S
    Zr51   O56       1.67123      .   S
    N12    O57       3.90149      .   S
    Zr41   O57       1.67137      .   S
    Zr26   O58       1.66980      .   S
    N14    O58       3.89948      .   S
    Zr46   O59       1.67123      .   S
    N11    O59       3.90123  1_455   S
    Zr31   O60       1.66979      .   S
    N2     O60       3.89945  1_455   S
    Zr36   O61       1.67137      .   S
    N13    O61       3.90150      .   S
    Zr21   O62       1.66979      .   S
    N15    O62       3.89945  1_655   S
    N9     O63       3.89948      .   S
    Zr16   O63       1.66980      .   S
