# CIF file generated by openbabel 2.4.90, see http://openbabel.sf.net
data_I
_chemical_name_common ''
_cell_length_a 11.736
_cell_length_b 14.229
_cell_length_c 14.35
_cell_angle_alpha 76.733
_cell_angle_beta 89.878
_cell_angle_gamma 65.675
_space_group_name_H-M_alt 'P 1'
_space_group_name_Hall 'P 1'
loop_
    _symmetry_equiv_pos_as_xyz
    x,y,z
loop_
    _atom_site_label
    _atom_site_type_symbol
    _atom_site_fract_x
    _atom_site_fract_y
    _atom_site_fract_z
    _atom_site_occupancy
    N0      N    0.90455   0.03676   0.37594   1.000
    N1      N    0.05918   0.03675   0.87594   1.000
    N2      N    0.16478   0.38433   0.07619   1.000
    N3      N    0.09548   0.96346   0.62401   1.000
    N4      N    0.94084   0.96348   0.12401   1.000
    N5      N    0.45032   0.38440   0.57597   1.000
    N6      N    0.83525   0.61561   0.92377   1.000
    N7      N    0.54970   0.61555   0.42398   1.000
    Zr8     Zr   0.50001   0.49997   0.99997   1.000
    O9      O    0.47771   0.43871   0.24406   1.000
    O10     O    0.38481   0.66525   0.93726   1.000
    O11     O    0.67485   0.37148   0.93874   1.000
    O12     O    0.52231   0.56123   0.75589   1.000
    O13     O    0.32516   0.62853   0.06121   1.000
    O14     O    0.61521   0.33477   0.06269   1.000
    Zr15    Zr   0.00000   0.49998   0.49998   1.000
    O16     O    0.08354   0.43866   0.74416   1.000
    O17     O    0.95020   0.66522   0.43723   1.000
    O18     O    0.95386   0.37150   0.43874   1.000
    O19     O    0.04982   0.33480   0.56273   1.000
    O20     O    0.04615   0.62852   0.56121   1.000
    O21     O    0.91647   0.56129   0.25579   1.000
    O22     O    0.62453   0.54791   0.97378   1.000
    O23     O    0.37550   0.45203   0.02617   1.000
    O24     O    0.17228   0.45205   0.52608   1.000
    O25     O    0.82774   0.54791   0.47388   1.000
loop_
    _geom_bond_atom_site_label_1
    _geom_bond_atom_site_label_2
    _geom_bond_distance
    _geom_bond_site_symmetry_2
    _ccdc_geom_bond_type
    Zr8    O9        3.44667  1_556   S
    N5     O9        4.67909      .   S
    Zr8    O10       2.14073      .   S
    N1     O10       4.95563  1_545   S
    Zr8    O11       2.44225      .   S
    N1     O11       5.30064  1_455   S
    Zr8    O12       3.44666      .   S
    N7     O12       4.67910      .   S
    Zr8    O13       2.44272  1_556   S
    N4     O13       5.30237  1_655   S
    Zr8    O14       2.14000  1_556   S
    N4     O14       4.95353  1_565   S
    Zr15   O16       3.45075      .   S
    N2     O16       4.68285  1_554   S
    Zr15   O17       2.13987  1_455   S
    N0     O17       4.95409  1_545   S
    Zr15   O18       2.44180  1_455   S
    N0     O18       5.29879      .   S
    Zr15   O19       2.13909      .   S
    N3     O19       4.95133  1_565   S
    Zr15   O20       2.44264      .   S
    N3     O20       5.30157      .   S
    Zr15   O21       3.45074  1_455   S
    N6     O21       4.68283  1_556   S
    N6     O22       3.03260      .   S
    Zr8    O22       1.85560      .   S
    Zr8    O23       1.85559  1_556   S
    N2     O23       3.03259      .   S
    N5     O24       3.03204      .   S
    Zr15   O24       1.85554      .   S
    Zr15   O25       1.85548  1_455   S
    N7     O25       3.03195      .   S
