# CIF file generated by openbabel 2.4.90, see http://openbabel.sf.net
data_I
_chemical_name_common ''
_cell_length_a 11.736
_cell_length_b 14.229
_cell_length_c 14.35
_cell_angle_alpha 76.733
_cell_angle_beta 89.878
_cell_angle_gamma 65.675
_space_group_name_H-M_alt 'P 1'
_space_group_name_Hall 'P 1'
loop_
    _symmetry_equiv_pos_as_xyz
    x,y,z
loop_
    _atom_site_label
    _atom_site_type_symbol
    _atom_site_fract_x
    _atom_site_fract_y
    _atom_site_fract_z
    _atom_site_occupancy
    N0      N    0.90455   0.03676   0.37594   1.000
    N1      N    0.05918   0.03675   0.87594   1.000
    N2      N    0.16478   0.38433   0.07619   1.000
    N3      N    0.09548   0.96346   0.62401   1.000
    N4      N    0.94084   0.96348   0.12401   1.000
    N5      N    0.45032   0.38440   0.57597   1.000
    N6      N    0.83525   0.61561   0.92377   1.000
    N7      N    0.54970   0.61555   0.42398   1.000
    Zr8     Zr   0.50001   0.49997   0.99997   1.000
    O9      O    0.47771   0.43871   0.24406   1.000
    O10     O    0.61933   0.54500   0.95538   1.000
    O11     O    0.38481   0.66525   0.93726   1.000
    O12     O    0.67485   0.37148   0.93874   1.000
    O13     O    0.52231   0.56123   0.75589   1.000
    O14     O    0.38069   0.45495   0.04457   1.000
    O15     O    0.32516   0.62853   0.06121   1.000
    O16     O    0.61521   0.33477   0.06269   1.000
    O17     O    0.62972   0.55083   0.99218   1.000
    O18     O    0.37030   0.44911   0.00777   1.000
    Zr19    Zr   0.00000   0.49998   0.49998   1.000
    O20     O    0.08354   0.43866   0.74416   1.000
    O21     O    0.18047   0.44910   0.50767   1.000
    O22     O    0.95020   0.66522   0.43723   1.000
    O23     O    0.95386   0.37150   0.43874   1.000
    O24     O    0.83593   0.54497   0.45547   1.000
    O25     O    0.81954   0.55085   0.49228   1.000
    O26     O    0.04982   0.33480   0.56273   1.000
    O27     O    0.04615   0.62852   0.56121   1.000
    O28     O    0.16408   0.45499   0.54448   1.000
    O29     O    0.91647   0.56129   0.25579   1.000
loop_
    _geom_bond_atom_site_label_1
    _geom_bond_atom_site_label_2
    _geom_bond_distance
    _geom_bond_site_symmetry_2
    _ccdc_geom_bond_type
    Zr8    O9        3.44667  1_556   S
    N5     O9        4.67909      .   S
    Zr8    O10       1.82428      .   S
    N6     O10       3.08546      .   S
    Zr8    O11       2.14073      .   S
    N1     O11       4.95563  1_545   S
    Zr8    O12       2.44225      .   S
    N1     O12       5.30064  1_455   S
    Zr8    O13       3.44666      .   S
    N7     O13       4.67910      .   S
    Zr8    O14       1.82427  1_556   S
    N2     O14       3.08545      .   S
    Zr8    O15       2.44272  1_556   S
    N4     O15       5.30237  1_655   S
    Zr8    O16       2.14000  1_556   S
    N4     O16       4.95353  1_565   S
    Zr8    O17       1.92955      .   S
    N6     O17       3.00631      .   S
    Zr8    O18       1.92954  1_556   S
    N2     O18       3.00630      .   S
    Zr19   O20       3.45075      .   S
    N2     O20       4.68285  1_554   S
    Zr19   O21       1.92956      .   S
    N5     O21       3.00581      .   S
    Zr19   O22       2.13987  1_455   S
    N0     O22       4.95409  1_545   S
    Zr19   O23       2.44180  1_455   S
    N0     O23       5.29879      .   S
    Zr19   O24       1.82414  1_455   S
    N7     O24       3.08478      .   S
    Zr19   O25       1.92950  1_455   S
    N7     O25       3.00572      .   S
    Zr19   O26       2.13909      .   S
    N3     O26       4.95133  1_565   S
    Zr19   O27       2.44264      .   S
    N3     O27       5.30157      .   S
    Zr19   O28       1.82420      .   S
    N5     O28       3.08488      .   S
    Zr19   O29       3.45074  1_455   S
    N6     O29       4.68283  1_556   S
