# CIF file generated by openbabel 2.4.90, see http://openbabel.sf.net
data_I
_chemical_name_common ''
_cell_length_a 11.736
_cell_length_b 14.229
_cell_length_c 14.35
_cell_angle_alpha 76.733
_cell_angle_beta 89.878
_cell_angle_gamma 65.675
_space_group_name_H-M_alt 'P 1'
_space_group_name_Hall 'P 1'
loop_
    _symmetry_equiv_pos_as_xyz
    x,y,z
loop_
    _atom_site_label
    _atom_site_type_symbol
    _atom_site_fract_x
    _atom_site_fract_y
    _atom_site_fract_z
    _atom_site_occupancy
    Zr0     Zr   0.90289   0.53736   0.37407   1.000
    Zr1     Zr   0.43987   0.46254   0.12589   1.000
    Zr2     Zr   0.09712   0.46259   0.62589   1.000
    Zr3     Zr   0.56015   0.53741   0.87406   1.000
    Zr4     Zr   0.83643   0.63606   0.15024   1.000
    Zr5     Zr   0.63574   0.57768   0.07637   1.000
    Zr6     Zr   0.47295   0.36414   0.34952   1.000
    Zr7     Zr   0.21384   0.42197   0.42341   1.000
    Zr8     Zr   0.16358   0.36389   0.84971   1.000
    Zr9     Zr   0.36427   0.42227   0.92358   1.000
    Zr10    Zr   0.52706   0.63580   0.65043   1.000
    Zr11    Zr   0.78617   0.57799   0.57654   1.000
    Zr12    Zr   0.89045   0.54690   0.21408   1.000
    Zr13    Zr   0.80011   0.72836   0.15994   1.000
    Zr14    Zr   0.61234   0.61604   0.14752   1.000
    Zr15    Zr   0.58535   0.52173   0.04893   1.000
    Zr16    Zr   0.43706   0.45344   0.28570   1.000
    Zr17    Zr   0.52975   0.27195   0.33977   1.000
    Zr18    Zr   0.22942   0.38303   0.35260   1.000
    Zr19    Zr   0.10736   0.47814   0.45061   1.000
    Zr20    Zr   0.10955   0.45305   0.78587   1.000
    Zr21    Zr   0.19989   0.27159   0.84001   1.000
    Zr22    Zr   0.38767   0.38392   0.85242   1.000
    Zr23    Zr   0.41465   0.47823   0.95101   1.000
    Zr24    Zr   0.56301   0.54650   0.71425   1.000
    Zr25    Zr   0.47024   0.72799   0.66019   1.000
    Zr26    Zr   0.77058   0.61696   0.64733   1.000
    Zr27    Zr   0.89265   0.52182   0.54935   1.000
    O28     O    0.61055   0.54971   0.06265   1.000
    O29     O    0.51261   0.49214   0.08741   1.000
    O30     O    0.62404   0.59686   0.11194   1.000
    O31     O    0.43846   0.45799   0.20579   1.000
    O32     O    0.81827   0.68221   0.15509   1.000
    O33     O    0.86344   0.59148   0.18216   1.000
    O34     O    0.89667   0.54213   0.29407   1.000
    O35     O    0.45500   0.40879   0.31761   1.000
    O36     O    0.50135   0.31805   0.34465   1.000
    O37     O    0.22163   0.40250   0.38800   1.000
    O38     O    0.00512   0.50775   0.41234   1.000
    O39     O    0.16060   0.45006   0.43701   1.000
    O40     O    0.83941   0.54990   0.56295   1.000
    O41     O    0.99489   0.49220   0.58762   1.000
    O42     O    0.77838   0.59747   0.61194   1.000
    O43     O    0.10334   0.45782   0.70588   1.000
    O44     O    0.49865   0.68189   0.65531   1.000
    O45     O    0.54503   0.59115   0.68234   1.000
    O46     O    0.56158   0.54195   0.79415   1.000
    O47     O    0.13657   0.40847   0.81779   1.000
    O48     O    0.18174   0.31774   0.84486   1.000
    O49     O    0.37597   0.40310   0.88800   1.000
    O50     O    0.48740   0.50782   0.91254   1.000
    O51     O    0.38946   0.45025   0.93729   1.000
    O52     O    0.57275   0.52957   0.96150   1.000
    O53     O    0.10224   0.47036   0.53825   1.000
    O54     O    0.42726   0.47038   0.03845   1.000
    O55     O    0.89777   0.52959   0.46171   1.000
    N56     N    0.90455   0.03676   0.37594   1.000
    O57     O    0.90039   0.83046   0.37448   1.000
    O58     O    0.90773   0.24302   0.37750   1.000
    N59     N    0.05918   0.03675   0.87594   1.000
    O60     O    0.84970   0.24300   0.87750   1.000
    O61     O    0.26960   0.83052   0.87454   1.000
    N62     N    0.16478   0.38433   0.07619   1.000
    O63     O    0.24059   0.39825   0.01557   1.000
    O64     O    0.16708   0.37734   0.98835   1.000
    O65     O    0.26137   0.40992   0.08916   1.000
    N66     N    0.09548   0.96346   0.62401   1.000
    O67     O    0.09229   0.75706   0.62245   1.000
    O68     O    0.09963   0.16962   0.62548   1.000
    N69     N    0.94084   0.96348   0.12401   1.000
    O70     O    0.73042   0.16957   0.12541   1.000
    O71     O    0.15032   0.75709   0.12245   1.000
    N72     N    0.45032   0.38440   0.57597   1.000
    O73     O    0.45542   0.37745   0.48815   1.000
    O74     O    0.32816   0.40999   0.58899   1.000
    O75     O    0.36094   0.39823   0.51536   1.000
    N76     N    0.83525   0.61561   0.92377   1.000
    O77     O    0.83294   0.62261   0.01160   1.000
    O78     O    0.75943   0.60169   0.98439   1.000
    O79     O    0.73866   0.59002   0.91079   1.000
    N80     N    0.54970   0.61555   0.42398   1.000
    O81     O    0.54460   0.62249   0.51180   1.000
    O82     O    0.63908   0.60172   0.48459   1.000
    O83     O    0.67186   0.58995   0.41096   1.000
loop_
    _geom_bond_atom_site_label_1
    _geom_bond_atom_site_label_2
    _geom_bond_distance
    _geom_bond_site_symmetry_2
    _ccdc_geom_bond_type
    Zr15   O28       0.64638      .   S
    Zr5    O28       0.64638      .   S
    Zr15   O29       1.18258      .   S
    Zr1    O29       1.18258      .   S
    Zr5    O30       0.62183      .   S
    Zr14   O30       0.62183      .   S
    Zr1    O31       1.13402      .   S
    Zr16   O31       1.13402      .   S
    Zr4    O32       0.62219      .   S
    Zr13   O32       0.62219      .   S
    Zr4    O33       0.64362      .   S
    Zr12   O33       0.64362      .   S
    Zr12   O34       1.13496      .   S
    Zr0    O34       1.13496      .   S
    Zr16   O35       0.64364      .   S
    Zr6    O35       0.64364      .   S
    Zr17   O36       0.62217      .   S
    Zr6    O36       0.62217      .   S
    Zr18   O37       0.62191      .   S
    Zr7    O37       0.62191      .   S
    Zr0    O38       1.18273  1_655   S
    Zr19   O38       1.18273      .   S
    Zr7    O39       0.64636      .   S
    Zr19   O39       0.64636      .   S
    Zr27   O40       0.64635      .   S
    Zr11   O40       0.64635      .   S
    Zr27   O41       1.18271      .   S
    Zr2    O41       1.18271  1_455   S
    Zr11   O42       0.62190      .   S
    Zr26   O42       0.62190      .   S
    Zr2    O43       1.13495      .   S
    Zr20   O43       1.13495      .   S
    Zr10   O44       0.62217      .   S
    Zr25   O44       0.62217      .   S
    Zr10   O45       0.64364      .   S
    Zr24   O45       0.64364      .   S
    Zr24   O46       1.13402      .   S
    Zr3    O46       1.13402      .   S
    Zr20   O47       0.64362      .   S
    Zr8    O47       0.64362      .   S
    Zr21   O48       0.62219      .   S
    Zr8    O48       0.62219      .   S
    Zr22   O49       0.62184      .   S
    Zr9    O49       0.62184      .   S
    Zr3    O50       1.18261      .   S
    Zr23   O50       1.18261      .   S
    Zr9    O51       0.64637      .   S
    Zr23   O51       0.64637      .   S
    Zr15   O52       1.23757  1_554   S
    Zr3    O52       1.23757      .   S
    Zr19   O53       1.24044      .   S
    Zr2    O53       1.24044      .   S
    Zr23   O54       1.23760  1_556   S
    Zr1    O54       1.23760      .   S
    Zr27   O55       1.24051      .   S
    Zr0    O55       1.24051      .   S
    N56    O57       2.96062  1_545   S
    Zr0    O57       4.15995      .   S
    N56    O58       2.95569      .   S
    Zr0    O58       4.15399      .   S
    N59    O60       2.95690  1_455   S
    Zr3    O60       4.15663      .   S
    N59    O61       2.96082  1_545   S
    Zr3    O61       4.16161      .   S
    N62    O63       1.28473      .   S
    Zr9    O63       2.03951  1_556   S
    N62    O64       1.28631  1_554   S
    Zr8    O64       2.04391      .   S
    N62    O65       1.35074      .   S
    Zr1    O65       2.58933      .   S
    N66    O67       2.95760      .   S
    Zr2    O67       4.15590      .   S
    N66    O68       2.95871  1_565   S
    Zr2    O68       4.15804      .   S
    N69    O70       2.95954  1_565   S
    Zr1    O70       4.16030      .   S
    N69    O71       2.95819  1_655   S
    Zr1    O71       4.15794      .   S
    N72    O73       1.28584      .   S
    Zr6    O73       2.04317      .   S
    N72    O74       1.35018      .   S
    Zr2    O74       2.58774      .   S
    N72    O75       1.28479      .   S
    Zr7    O75       2.03963      .   S
    N76    O77       1.28631  1_556   S
    Zr4    O77       2.04392      .   S
    N76    O78       1.28473      .   S
    Zr5    O78       2.03950  1_554   S
    N76    O79       1.35074      .   S
    Zr3    O79       2.58932      .   S
    N80    O81       1.28585      .   S
    Zr10   O81       2.04319      .   S
    N80    O82       1.28479      .   S
    Zr11   O82       2.03963      .   S
    N80    O83       1.35014      .   S
    Zr0    O83       2.58764      .   S
