# CIF file generated by openbabel 2.4.90, see http://openbabel.sf.net
data_I
_chemical_name_common 'image0'
_cell_length_a 12.396
_cell_length_b 20.153
_cell_length_c 20.225
_cell_angle_alpha 102.717
_cell_angle_beta 94.698
_cell_angle_gamma 94.474
_space_group_name_H-M_alt 'P 1'
_space_group_name_Hall 'P 1'
loop_
    _symmetry_equiv_pos_as_xyz
    x,y,z
loop_
    _atom_site_label
    _atom_site_type_symbol
    _atom_site_fract_x
    _atom_site_fract_y
    _atom_site_fract_z
    _atom_site_occupancy
    Zn0     Zn   0.80551   0.60889   0.11389   1.000
    Zn1     Zn   0.61626   0.66407   0.15020   1.000
    Zn2     Zn   0.91674   0.20002   0.92677   1.000
    Zn3     Zn   0.00878   0.34957   0.08580   1.000
    Zn4     Zn   0.30555   0.11405   0.60870   1.000
    Zn5     Zn   0.11612   0.15052   0.66300   1.000
    Zn6     Zn   0.41679   0.92793   0.19818   1.000
    Zn7     Zn   0.50880   0.08533   0.34984   1.000
    H8      H    0.52149   0.72722   0.28106   1.000
    H9      H    0.43767   0.65008   0.24318   1.000
    H10     H    0.30122   0.83718   0.28138   1.000
    H11     H    0.44299   0.83432   0.30326   1.000
    H12     H    0.31839   0.79733   0.09733   1.000
    H13     H    0.22845   0.81511   0.16260   1.000
    H14     H    0.18862   0.73331   0.22936   1.000
    H15     H    0.24662   0.65326   0.21241   1.000
    H16     H    0.36394   0.62832   0.12507   1.000
    H17     H    0.39578   0.68882   0.07500   1.000
    H18     H    0.50931   0.79440   0.12659   1.000
    H19     H    0.56384   0.80985   0.21351   1.000
    H20     H    0.03868   0.59706   0.18245   1.000
    H21     H    0.05827   0.64824   0.12183   1.000
    H22     H    0.85892   0.46216   0.06520   1.000
    H23     H    0.92483   0.48984   0.14949   1.000
    H24     H    0.96800   0.61096   0.00727   1.000
    H25     H    0.88431   0.53175   0.98300   1.000
    H26     H    0.19890   0.46294   0.10063   1.000
    H27     H    0.12130   0.48995   0.17000   1.000
    H28     H    0.16224   0.61208   0.02911   1.000
    H29     H    0.22239   0.53315   0.01892   1.000
    H30     H    0.96571   0.42572   0.97028   1.000
    H31     H    0.10973   0.42600   0.98589   1.000
    H32     H    0.65141   0.84148   0.06101   1.000
    H33     H    0.62565   0.95698   0.04429   1.000
    H34     H    0.69042   0.05853   0.00096   1.000
    H35     H    0.96040   0.95628   0.92257   1.000
    H36     H    0.99063   0.84151   0.94394   1.000
    H37     H    0.93133   0.74313   0.99294   1.000
    H38     H    0.79910   0.44688   0.21550   1.000
    H39     H    0.44081   0.40662   0.30253   1.000
    H40     H    0.48304   0.50932   0.25646   1.000
    H41     H    0.85250   0.33735   0.23783   1.000
    H42     H    0.81315   0.23617   0.28751   1.000
    H43     H    0.49745   0.29866   0.32976   1.000
    H44     H    0.75125   0.82688   0.33122   1.000
    H45     H    0.76778   0.92861   0.42851   1.000
    H46     H    0.17086   0.92579   0.45235   1.000
    H47     H    0.15373   0.82079   0.35826   1.000
    H48     H    0.03638   0.73376   0.26897   1.000
    H49     H    0.88520   0.01532   0.51881   1.000
    H50     H    0.68595   0.38412   0.10549   1.000
    H51     H    0.48779   0.38542   0.11322   1.000
    H52     H    0.29807   0.34030   0.06595   1.000
    H53     H    0.62899   0.22622   0.92133   1.000
    H54     H    0.43819   0.17779   0.87601   1.000
    H55     H    0.24033   0.17896   0.88410   1.000
    H56     H    0.02104   0.28207   0.72607   1.000
    H57     H    0.93718   0.24388   0.64915   1.000
    H58     H    0.80096   0.28310   0.83539   1.000
    H59     H    0.94268   0.30486   0.83267   1.000
    H60     H    0.81857   0.09842   0.79645   1.000
    H61     H    0.72849   0.16407   0.81373   1.000
    H62     H    0.68832   0.23064   0.73172   1.000
    H63     H    0.74634   0.21325   0.65211   1.000
    H64     H    0.86377   0.12546   0.62780   1.000
    H65     H    0.89589   0.07556   0.68842   1.000
    H66     H    0.00941   0.12750   0.79371   1.000
    H67     H    0.06373   0.21463   0.80886   1.000
    H68     H    0.53837   0.18276   0.59667   1.000
    H69     H    0.55838   0.12207   0.64786   1.000
    H70     H    0.35858   0.06515   0.46219   1.000
    H71     H    0.42433   0.14962   0.48975   1.000
    H72     H    0.46835   0.00715   0.61080   1.000
    H73     H    0.38449   0.98278   0.53180   1.000
    H74     H    0.69853   0.10028   0.46334   1.000
    H75     H    0.62076   0.16999   0.49002   1.000
    H76     H    0.66245   0.02890   0.61214   1.000
    H77     H    0.72251   0.01843   0.53358   1.000
    H78     H    0.46556   0.96975   0.42624   1.000
    H79     H    0.60955   0.98521   0.42658   1.000
    H80     H    0.15116   0.06095   0.83955   1.000
    H81     H    0.12489   0.04462   0.95450   1.000
    H82     H    0.18986   0.00200   0.05649   1.000
    H83     H    0.46109   0.92330   0.95615   1.000
    H84     H    0.49159   0.94418   0.84164   1.000
    H85     H    0.43214   0.99274   0.74300   1.000
    H86     H    0.29914   0.21625   0.44793   1.000
    H87     H    0.94041   0.30340   0.40635   1.000
    H88     H    0.98268   0.25752   0.50904   1.000
    H89     H    0.35262   0.23824   0.33877   1.000
    H90     H    0.31295   0.28738   0.23741   1.000
    H91     H    0.99698   0.33020   0.29871   1.000
    H92     H    0.25100   0.33180   0.82656   1.000
    H93     H    0.26761   0.42929   0.92816   1.000
    H94     H    0.67059   0.45288   0.92551   1.000
    H95     H    0.65329   0.35894   0.82056   1.000
    H96     H    0.53592   0.26950   0.73364   1.000
    H97     H    0.38514   0.51952   0.01493   1.000
    H98     H    0.18563   0.10544   0.38502   1.000
    H99     H    0.98741   0.11265   0.38690   1.000
    H100    H    0.79769   0.06552   0.34144   1.000
    H101    H    0.12903   0.92293   0.22484   1.000
    H102    H    0.93833   0.87762   0.17642   1.000
    H103    H    0.74039   0.88550   0.17788   1.000
    C104    C    0.45020   0.70492   0.24490   1.000
    C105    C    0.37271   0.81093   0.26657   1.000
    C106    C    0.30032   0.78928   0.14739   1.000
    C107    C    0.26112   0.70812   0.21434   1.000
    C108    C    0.37764   0.68291   0.12581   1.000
    C109    C    0.49307   0.78733   0.17715   1.000
    C110    C    0.04827   0.59567   0.12868   1.000
    C111    C    0.93319   0.48882   0.09575   1.000
    C112    C    0.95914   0.55812   0.01329   1.000
    C113    C    0.12896   0.49042   0.11641   1.000
    C114    C    0.15134   0.55921   0.03516   1.000
    C115    C    0.03942   0.45333   0.00000   1.000
    C116    C    0.75641   0.72814   0.06154   1.000
    C117    C    0.78771   0.78660   0.03023   1.000
    C118    C    0.72580   0.84160   0.03582   1.000
    C119    C    0.75826   0.89891   0.00977   1.000
    C120    C    0.69880   0.95725   0.01775   1.000
    C121    C    0.73412   0.01306   0.99357   1.000
    C122    C    0.88760   0.95590   0.94935   1.000
    C123    C    0.91663   0.84129   0.96969   1.000
    C124    C    0.88413   0.78690   0.99665   1.000
    C125    C    0.82912   0.01247   0.95855   1.000
    C126    C    0.86961   0.07336   0.93340   1.000
    C127    C    0.85536   0.89870   0.97549   1.000
    C128    C    0.66856   0.54453   0.20306   1.000
    C129    C    0.64472   0.48448   0.23366   1.000
    C130    C    0.72127   0.43808   0.23507   1.000
    C131    C    0.70001   0.37897   0.26047   1.000
    C132    C    0.59712   0.36763   0.28609   1.000
    C133    C    0.51969   0.41588   0.28416   1.000
    C134    C    0.54268   0.47275   0.25858   1.000
    C135    C    0.77670   0.33007   0.26043   1.000
    C136    C    0.75459   0.27369   0.28685   1.000
    C137    C    0.57580   0.30815   0.31114   1.000
    C138    C    0.65300   0.26217   0.31239   1.000
    C139    C    0.63083   0.19904   0.33881   1.000
    C140    C    0.82047   0.72446   0.23794   1.000
    C141    C    0.88694   0.77579   0.29468   1.000
    C142    C    0.83920   0.82580   0.33771   1.000
    C143    C    0.90280   0.87590   0.38924   1.000
    C144    C    0.85591   0.92767   0.43424   1.000
    C145    C    0.08262   0.92565   0.44722   1.000
    C146    C    0.01890   0.87486   0.39644   1.000
    C147    C    0.06573   0.82245   0.35216   1.000
    C148    C    0.00153   0.77435   0.30289   1.000
    C149    C    0.03469   0.97511   0.49081   1.000
    C150    C    0.10200   0.02880   0.54493   1.000
    C151    C    0.91991   0.97549   0.48386   1.000
    C152    C    0.66883   0.30554   0.01196   1.000
    C153    C    0.78856   0.30491   0.00922   1.000
    C154    C    0.62850   0.35035   0.06687   1.000
    C155    C    0.51852   0.35091   0.07104   1.000
    C156    C    0.32971   0.30620   0.02300   1.000
    C157    C    0.13875   0.26353   0.97877   1.000
    C158    C    0.44322   0.30618   0.02105   1.000
    C159    C    0.48354   0.25976   0.96600   1.000
    C160    C    0.59719   0.26124   0.96257   1.000
    C161    C    0.40789   0.21376   0.91728   1.000
    C162    C    0.25791   0.26157   0.97482   1.000
    C163    C    0.29781   0.21428   0.92161   1.000
    C164    C    0.94983   0.24581   0.70387   1.000
    C165    C    0.87246   0.26805   0.80940   1.000
    C166    C    0.80038   0.14859   0.78818   1.000
    C167    C    0.76086   0.21540   0.70684   1.000
    C168    C    0.87758   0.12642   0.68229   1.000
    C169    C    0.99305   0.17818   0.78643   1.000
    C170    C    0.54817   0.12882   0.59542   1.000
    C171    C    0.43285   0.09571   0.48881   1.000
    C172    C    0.45930   0.01310   0.55811   1.000
    C173    C    0.62859   0.11623   0.49060   1.000
    C174    C    0.65144   0.03486   0.55939   1.000
    C175    C    0.53932   0.00000   0.45375   1.000
    C176    C    0.25652   0.06129   0.72719   1.000
    C177    C    0.28798   0.03005   0.78560   1.000
    C178    C    0.22576   0.03578   0.84012   1.000
    C179    C    0.25823   0.00997   0.89751   1.000
    C180    C    0.19839   0.01820   0.95530   1.000
    C181    C    0.23376   0.99442   0.01135   1.000
    C182    C    0.38799   0.95000   0.95526   1.000
    C183    C    0.41729   0.96984   0.84095   1.000
    C184    C    0.38472   0.99656   0.78644   1.000
    C185    C    0.32914   0.95949   0.01138   1.000
    C186    C    0.36950   0.93487   0.07251   1.000
    C187    C    0.35572   0.97583   0.89791   1.000
    C188    C    0.16856   0.20391   0.54481   1.000
    C189    C    0.14456   0.23454   0.48486   1.000
    C190    C    0.22120   0.23584   0.43880   1.000
    C191    C    0.19989   0.26109   0.37972   1.000
    C192    C    0.09684   0.28671   0.36799   1.000
    C193    C    0.01936   0.28500   0.41590   1.000
    C194    C    0.04239   0.25952   0.47276   1.000
    C195    C    0.27664   0.26081   0.33116   1.000
    C196    C    0.25438   0.28697   0.27470   1.000
    C197    C    0.07542   0.31154   0.30846   1.000
    C198    C    0.15261   0.31251   0.26278   1.000
    C199    C    0.13039   0.33864   0.19950   1.000
    C200    C    0.32026   0.23825   0.72439   1.000
    C201    C    0.38659   0.29520   0.77559   1.000
    C202    C    0.33890   0.33832   0.82549   1.000
    C203    C    0.40251   0.38990   0.87556   1.000
    C204    C    0.35572   0.43494   0.92728   1.000
    C205    C    0.58238   0.44780   0.92536   1.000
    C206    C    0.51860   0.39708   0.87455   1.000
    C207    C    0.56535   0.35280   0.82219   1.000
    C208    C    0.50116   0.30346   0.77416   1.000
    C209    C    0.53456   0.49138   0.97482   1.000
    C210    C    0.60200   0.54541   0.02855   1.000
    C211    C    0.41979   0.48452   0.97512   1.000
    C212    C    0.16873   0.01273   0.30521   1.000
    C213    C    0.28846   0.01014   0.30419   1.000
    C214    C    0.12826   0.06703   0.35087   1.000
    C215    C    0.01822   0.07092   0.35176   1.000
    C216    C    0.82945   0.02387   0.30678   1.000
    C217    C    0.63857   0.97915   0.26337   1.000
    C218    C    0.94301   0.02125   0.30657   1.000
    C219    C    0.98346   0.96686   0.25937   1.000
    C220    C    0.09712   0.96368   0.26049   1.000
    C221    C    0.90791   0.91845   0.21292   1.000
    C222    C    0.75776   0.97525   0.26155   1.000
    C223    C    0.79780   0.92262   0.21360   1.000
    N224    N    0.47541   0.71294   0.17535   1.000
    N225    N    0.35386   0.73832   0.26520   1.000
    N226    N    0.28078   0.71644   0.14539   1.000
    N227    N    0.39576   0.82255   0.19792   1.000
    N228    N    0.94595   0.56023   0.08703   1.000
    N229    N    0.02838   0.45187   0.07440   1.000
    N230    N    0.14333   0.56063   0.10795   1.000
    N231    N    0.05348   0.52312   0.99180   1.000
    N232    N    0.97527   0.17609   0.71220   1.000
    N233    N    0.85349   0.26641   0.73695   1.000
    N234    N    0.78073   0.14630   0.71550   1.000
    N235    N    0.89573   0.19925   0.82134   1.000
    N236    N    0.44584   0.08707   0.56000   1.000
    N237    N    0.52805   0.07412   0.45210   1.000
    N238    N    0.64320   0.10788   0.56063   1.000
    N239    N    0.55363   0.99149   0.52336   1.000
    O240    O    0.81931   0.68031   0.05637   1.000
    O241    O    0.67068   0.73037   0.09251   1.000
    O242    O    0.82926   0.13050   0.95858   1.000
    O243    O    0.93948   0.06962   0.89153   1.000
    O244    O    0.75967   0.54895   0.17823   1.000
    O245    O    0.59669   0.58644   0.20240   1.000
    O246    O    0.70660   0.16987   0.36048   1.000
    O247    O    0.52739   0.17733   0.33614   1.000
    O248    O    0.87351   0.68443   0.19762   1.000
    O249    O    0.71731   0.72500   0.23321   1.000
    O250    O    0.05108   0.06398   0.59049   1.000
    O251    O    0.20431   0.03588   0.54130   1.000
    O252    O    0.10662   0.31632   0.01640   1.000
    O253    O    0.07626   0.21291   0.94249   1.000
    O254    O    0.84847   0.33319   0.06422   1.000
    O255    O    0.82425   0.27792   0.95293   1.000
    O256    O    0.31943   0.05610   0.67968   1.000
    O257    O    0.17054   0.09231   0.72922   1.000
    O258    O    0.32952   0.96095   0.12925   1.000
    O259    O    0.43899   0.89240   0.06943   1.000
    O260    O    0.26008   0.17933   0.54960   1.000
    O261    O    0.09652   0.20289   0.58625   1.000
    O262    O    0.20613   0.36006   0.17052   1.000
    O263    O    0.02695   0.33602   0.17760   1.000
    O264    O    0.37339   0.19777   0.68459   1.000
    O265    O    0.21711   0.23350   0.72485   1.000
    O266    O    0.55118   0.59115   0.06374   1.000
    O267    O    0.70430   0.54157   0.03564   1.000
    O268    O    0.60612   0.01503   0.31693   1.000
    O269    O    0.57637   0.94458   0.21178   1.000
    O270    O    0.34837   0.06488   0.33367   1.000
    O271    O    0.32416   0.95420   0.27570   1.000
loop_
    _geom_bond_atom_site_label_1
    _geom_bond_atom_site_label_2
    _geom_bond_distance
    _geom_bond_site_symmetry_2
    _ccdc_geom_bond_type
    C115   N229      1.52854      .   S
    C115   H30       1.09052  1_454   S
    C115   H31       1.09126  1_554   S
    C115   N231      1.45095  1_554   S
    H34    C121      1.08899  1_554   S
    H24    C112      1.09631      .   S
    C153   C152      1.49067      .   S
    C153   O254      1.27798      .   S
    C153   O255      1.27871  1_554   S
    C119   C120      1.42225      .   S
    C119   C118      1.41548      .   S
    C119   C127      1.43725  1_554   S
    C181   C185      1.42245      .   S
    C181   H82       1.08900  1_565   S
    C181   C180      1.37751  1_564   S
    C185   C186      1.49417      .   S
    C185   C182      1.38523  1_554   S
    C152   C154      1.42078      .   S
    C152   C160      1.38632  1_554   S
    C112   N228      1.50529      .   S
    C112   H25       1.09764  1_554   S
    C112   N231      1.45979  1_654   S
    H97    C211      1.08820  1_554   S
    O252   Zn3       1.97019      .   S
    O252   C157      1.27631  1_554   S
    C120   H33       1.09116      .   S
    C120   C121      1.37706  1_564   S
    H29    C114      1.09681      .   S
    C158   C156      1.41088      .   S
    C158   C155      1.42090      .   S
    C158   C159      1.43879  1_554   S
    C156   H52       1.10259      .   S
    C156   C162      1.37762  1_554   S
    C210   O267      1.27478      .   S
    C210   O266      1.27605      .   S
    C210   C209      1.50120  1_554   S
    H28    C114      1.09825      .   S
    C117   C118      1.38639      .   S
    C117   C116      1.49565      .   S
    C117   C124      1.42250  1_554   S
    C114   N230      1.47778      .   S
    C114   N231      1.47542  1_554   S
    O267   Zn0       2.09361      .   S
    C118   H32       1.08952      .   S
    O240   C116      1.27838      .   S
    O240   Zn0       2.04589      .   S
    C116   O241      1.27585      .   S
    O266   Zn1       2.07865      .   S
    O254   Zn3       1.98509  1_655   S
    H22    C111      1.09614      .   S
    C154   C155      1.37356      .   S
    C154   H50       1.08612      .   S
    O259   C186      1.25650      .   S
    C155   H51       1.09083      .   S
    C186   O258      1.30653      .   S
    N229   Zn3       2.12201      .   S
    N229   C111      1.48738  1_455   S
    N229   C113      1.50489      .   S
    H17    C108      1.09924      .   S
    Zn3    O263      1.93308      .   S
    N228   C111      1.48594      .   S
    N228   Zn0       2.11523      .   S
    N228   C110      1.49907  1_655   S
    O241   Zn1       2.06795      .   S
    C111   H23       1.09610      .   S
    H12    C106      1.09789      .   S
    H26    C113      1.09664      .   S
    N230   C113      1.46128      .   S
    N230   C110      1.46403      .   S
    Zn0    O244      2.04487      .   S
    Zn0    O248      2.08009      .   S
    C113   H27       1.09777      .   S
    H21    C110      1.09724      .   S
    H16    C108      1.09662      .   S
    C108   N226      1.46346      .   S
    C108   N224      1.50289      .   S
    H18    C109      1.09539      .   S
    C110   H20       1.09811      .   S
    O258   Zn6       1.95713      .   S
    N226   C106      1.46012      .   S
    N226   C107      1.47798      .   S
    C106   H13       1.09820      .   S
    C106   N227      1.50670      .   S
    Zn1    N224      2.11432      .   S
    Zn1    O245      2.08110      .   S
    Zn1    O249      2.09842      .   S
    O262   C199      1.24486      .   S
    N224   C109      1.49005      .   S
    N224   C104      1.50555      .   S
    H102   C221      1.09124      .   S
    C109   N227      1.49017      .   S
    C109   H19       1.09619      .   S
    O263   C199      1.31500      .   S
    H103   C223      1.08755      .   S
    O244   C128      1.27772      .   S
    O248   C140      1.27633      .   S
    N227   Zn6       2.11818      .   S
    N227   C105      1.50398      .   S
    Zn6    O269      1.96673      .   S
    Zn6    O271      2.02019      .   S
    C199   C198      1.50092      .   S
    O245   C128      1.27580      .   S
    C128   C129      1.49627      .   S
    O269   C217      1.27786      .   S
    H15    C107      1.09773      .   S
    C221   C223      1.37504      .   S
    C221   C219      1.42171      .   S
    C223   C222      1.42124      .   S
    C107   H14       1.09803      .   S
    C107   N225      1.47364      .   S
    H38    C130      1.08889      .   S
    H101   C220      1.08971      .   S
    O249   C140      1.27558      .   S
    C129   C130      1.38615      .   S
    C129   C134      1.42130      .   S
    C130   C131      1.41246      .   S
    H90    C196      1.08972      .   S
    H41    C135      1.09165      .   S
    C140   C141      1.50180      .   S
    H9     C104      1.09644      .   S
    C104   N225      1.46010      .   S
    C104   H8        1.09783      .   S
    H40    C134      1.08871      .   S
    C134   C133      1.37720      .   S
    C219   C220      1.41393  1_655   S
    C219   C218      1.43794  1_565   S
    C135   C131      1.42156      .   S
    C135   C136      1.37636      .   S
    C131   C132      1.43609      .   S
    C220   C212      1.38604  1_565   S
    C222   C217      1.48870      .   S
    C222   C216      1.38672  1_565   S
    C198   C196      1.42149      .   S
    C198   C197      1.38540      .   S
    C217   O268      1.27671  1_565   S
    N225   C105      1.45753      .   S
    C105   H10       1.09625      .   S
    C105   H11       1.09902      .   S
    H48    C148      1.08766      .   S
    C196   C195      1.37628      .   S
    O271   C213      1.27765  1_565   S
    C133   C132      1.42285      .   S
    C133   H39       1.09111      .   S
    C132   C137      1.41538      .   S
    C136   H42       1.08966      .   S
    C136   C138      1.42138      .   S
    C141   C148      1.41987  1_655   S
    C141   C142      1.38369      .   S
    H91    C197      1.08814  1_655   S
    C148   C147      1.37493      .   S
    C213   C212      1.49082      .   S
    C213   O270      1.27831      .   S
    C212   C214      1.42077      .   S
    C218   C216      1.41311      .   S
    C218   C215      1.42076  1_655   S
    C216   H100      1.09025      .   S
    C197   C192      1.41567      .   S
    C137   C138      1.38556      .   S
    C137   H43       1.08827      .   S
    C138   C139      1.49950      .   S
    O268   Zn7       1.97195      .   S
    C195   H89       1.09159      .   S
    C195   C191      1.42169      .   S
    H44    C142      1.08987      .   S
    O270   Zn7       1.98443      .   S
    O247   C139      1.31500      .   S
    O247   Zn7       1.93325      .   S
    C142   C143      1.41601      .   S
    C139   O246      1.24579      .   S
    Zn7    N237      2.12573      .   S
    C214   C215      1.37375      .   S
    C214   H98       1.08639      .   S
    C215   H99       1.09071  1_455   S
    C147   H47       1.09168      .   S
    C147   C146      1.42091      .   S
    C192   C191      1.43591      .   S
    C192   C193      1.42286      .   S
    C191   C190      1.41190      .   S
    C143   C146      1.43687  1_655   S
    C143   C144      1.42053      .   S
    C146   C145      1.41581      .   S
    H87    C193      1.09077  1_655   S
    C193   C194      1.37722      .   S
    H78    C175      1.09434  1_565   S
    H79    C175      1.09336  1_565   S
    H45    C144      1.09120      .   S
    C144   C151      1.37469      .   S
    C190   H86       1.08893      .   S
    C190   C189      1.38668      .   S
    C145   H46       1.08996      .   S
    C145   C149      1.38387      .   S
    N237   C175      1.51843      .   S
    N237   C171      1.48815      .   S
    N237   C173      1.50494      .   S
    C175   N239      1.45365  1_545   S
    H70    C171      1.09596      .   S
    H74    C173      1.09667      .   S
    C194   C189      1.42137      .   S
    C194   H88       1.08867  1_455   S
    C151   C149      1.41902  1_655   S
    C151   H49       1.08766  1_565   S
    C189   C188      1.49625      .   S
    C171   H71       1.09591      .   S
    C171   N236      1.48529      .   S
    H75    C173      1.09781      .   S
    C173   N238      1.46111      .   S
    C149   C150      1.50105  1_565   S
    N239   C172      1.45953  1_565   S
    N239   C174      1.47462  1_565   S
    H73    C172      1.09731  1_565   S
    H77    C174      1.09682      .   S
    O251   C150      1.27507      .   S
    O251   Zn4       2.09303      .   S
    C188   O260      1.27774      .   S
    C188   O261      1.27580      .   S
    C150   O250      1.27578      .   S
    O260   Zn4       2.04325      .   S
    C172   N236      1.50542      .   S
    C172   H72       1.09607      .   S
    C174   N238      1.47791      .   S
    C174   H76       1.09836      .   S
    N236   C170      1.49981      .   S
    N236   Zn4       2.11715      .   S
    N238   C170      1.46405      .   S
    O261   Zn5       2.06929      .   S
    O250   Zn5       2.07443      .   S
    C170   H68       1.09822      .   S
    C170   H69       1.09709      .   S
    Zn4    O256      2.04534      .   S
    Zn4    O264      2.08249      .   S
    H64    C168      1.09700      .   S
    H57    C164      1.09662      .   S
    H63    C167      1.09753      .   S
    Zn5    N232      2.12211  1_455   S
    Zn5    O265      2.10343      .   S
    Zn5    O257      2.07175      .   S
    O256   C176      1.27813      .   S
    C168   H65       1.09777      .   S
    C168   N232      1.50289      .   S
    C168   N234      1.46343      .   S
    O264   C200      1.27623      .   S
    C164   N232      1.50555      .   S
    C164   H56       1.09762  1_655   S
    C164   N233      1.46017      .   S
    C167   N234      1.47798      .   S
    C167   H62       1.09785      .   S
    C167   N233      1.47370      .   S
    N232   C169      1.49022      .   S
    N234   C166      1.46012      .   S
    C200   O265      1.27571      .   S
    C200   C201      1.50188      .   S
    C176   O257      1.27603      .   S
    C176   C177      1.49476      .   S
    H96    C208      1.08747      .   S
    N233   C165      1.45757      .   S
    H85    C184      1.08868      .   S
    C208   C201      1.42039      .   S
    C208   C207      1.37484      .   S
    C201   C202      1.38381      .   S
    C177   C184      1.42192  1_545   S
    C177   C178      1.38608      .   S
    C169   H66       1.09526  1_655   S
    C169   H67       1.09581  1_655   S
    C169   N235      1.49051      .   S
    C184   C183      1.37506      .   S
    C166   H60       1.09770      .   S
    C166   H61       1.09833      .   S
    C166   N235      1.50651      .   S
    C165   N235      1.50412      .   S
    C165   H59       1.09906      .   S
    C165   H58       1.09632      .   S
    H95    C207      1.09150      .   S
    N235   Zn2       2.12337      .   S
    C207   C206      1.42083      .   S
    C202   H92       1.08984      .   S
    C202   C203      1.41621      .   S
    H80    C178      1.08931      .   S
    C178   C179      1.41484      .   S
    C183   H84       1.09146      .   S
    C183   C187      1.42176      .   S
    C206   C203      1.43731      .   S
    C206   C205      1.41573      .   S
    C203   C204      1.42056      .   S
    H54    C161      1.09119      .   S
    H55    C163      1.08833      .   S
    O243   C126      1.25505      .   S
    C179   C187      1.43682  1_545   S
    C179   C180      1.42116      .   S
    C187   C182      1.41375      .   S
    C161   C163      1.37520      .   S
    C161   C159      1.42146      .   S
    H53    C160      1.08962      .   S
    C163   C162      1.42135      .   S
    H35    C122      1.09023      .   S
    C205   H94       1.08995      .   S
    C205   C209      1.38382      .   S
    Zn2    O253      1.96449  1_655   S
    Zn2    O255      2.01830      .   S
    Zn2    O242      1.95623      .   S
    C204   H93       1.09128      .   S
    C204   C211      1.37477      .   S
    C126   C125      1.49566      .   S
    C126   O242      1.30728      .   S
    O253   C157      1.27796      .   S
    H36    C123      1.09148      .   S
    C122   C125      1.38474  1_565   S
    C122   C127      1.41390      .   S
    H81    C180      1.09130      .   S
    C182   H83       1.09024      .   S
    C125   C121      1.42257      .   S
    C160   C159      1.41450      .   S
    C123   C127      1.42167      .   S
    C123   C124      1.37526      .   S
    C209   C211      1.41926      .   S
    C162   C157      1.48890      .   S
    H37    C124      1.08841      .   S
    Zn0    Zn1       2.75845      .   S
    Zn4    Zn5       2.75618      .   S
