# CIF file generated by openbabel 2.4.90, see http://openbabel.sf.net
data_I
_chemical_name_common ''
_cell_length_a 21.933
_cell_length_b 21.947
_cell_length_c 15.978
_cell_angle_alpha 89.996
_cell_angle_beta 90
_cell_angle_gamma 89.962
_space_group_name_H-M_alt 'P 1'
_space_group_name_Hall 'P 1'
loop_
    _symmetry_equiv_pos_as_xyz
    x,y,z
loop_
    _atom_site_label
    _atom_site_type_symbol
    _atom_site_fract_x
    _atom_site_fract_y
    _atom_site_fract_z
    _atom_site_occupancy
    C0      C    0.08074   0.08180   0.39082   1.000
    C1      C    0.08078   0.58208   0.39089   1.000
    C2      C    0.58101   0.08193   0.39070   1.000
    C3      C    0.58107   0.58213   0.39088   1.000
    C4      C    0.16921   0.41796   0.89094   1.000
    C5      C    0.16925   0.91820   0.89080   1.000
    C6      C    0.66914   0.41792   0.89088   1.000
    C7      C    0.66921   0.91814   0.89078   1.000
    C8      C    0.41902   0.33196   0.10830   1.000
    C9      C    0.41916   0.83196   0.10831   1.000
    C10     C    0.91929   0.33190   0.10830   1.000
    C11     C    0.91940   0.83191   0.10831   1.000
    C12     C    0.33077   0.16799   0.60833   1.000
    C13     C    0.33092   0.66804   0.60840   1.000
    C14     C    0.83085   0.16809   0.60820   1.000
    C15     C    0.83089   0.66805   0.60834   1.000
    C16     C    0.41900   0.41787   0.60867   1.000
    C17     C    0.41905   0.91807   0.60869   1.000
    C18     C    0.91930   0.41791   0.60862   1.000
    C19     C    0.91931   0.91819   0.60868   1.000
    C20     C    0.33084   0.08182   0.10869   1.000
    C21     C    0.33089   0.58209   0.10865   1.000
    C22     C    0.83086   0.08181   0.10858   1.000
    C23     C    0.83091   0.58204   0.10858   1.000
    C24     C    0.08067   0.16809   0.89118   1.000
    C25     C    0.08078   0.66811   0.89115   1.000
    C26     C    0.58090   0.16803   0.89119   1.000
    C27     C    0.58104   0.66803   0.89117   1.000
    C28     C    0.16923   0.33193   0.39116   1.000
    C29     C    0.16926   0.83190   0.39121   1.000
    C30     C    0.66913   0.33197   0.39110   1.000
    C31     C    0.66927   0.83201   0.39116   1.000
