# CIF file generated by openbabel 2.4.90, see http://openbabel.sf.net
data_I
_chemical_name_common ''
_cell_length_a 21.933
_cell_length_b 21.947
_cell_length_c 15.978
_cell_angle_alpha 89.996
_cell_angle_beta 90
_cell_angle_gamma 89.962
_space_group_name_H-M_alt 'P 1'
_space_group_name_Hall 'P 1'
loop_
    _symmetry_equiv_pos_as_xyz
    x,y,z
loop_
    _atom_site_label
    _atom_site_type_symbol
    _atom_site_fract_x
    _atom_site_fract_y
    _atom_site_fract_z
    _atom_site_occupancy
    Fe0     Fe   0.00008   0.49999   0.99977   1.000
    Fe1     Fe   0.50002   0.99998   0.99974   1.000
    Fe2     Fe   0.50002   0.50001   0.99978   1.000
    Fe3     Fe   0.24987   0.99998   0.49970   1.000
    Fe4     Fe   0.24989   0.50006   0.49977   1.000
    Fe5     Fe   0.75020   0.00002   0.49970   1.000
    Fe6     Fe   0.75018   0.49994   0.49975   1.000
    Fe7     Fe   0.00011   0.24984   0.49972   1.000
    Fe8     Fe   0.00002   0.75017   0.49978   1.000
    Fe9     Fe   0.49999   0.24984   0.49973   1.000
    Fe10    Fe   0.50006   0.75015   0.49978   1.000
    Fe11    Fe   0.24988   0.24979   0.99979   1.000
    Fe12    Fe   0.24990   0.75013   0.99977   1.000
    Fe13    Fe   0.75017   0.24988   0.99976   1.000
    Fe14    Fe   0.75020   0.75019   0.99973   1.000
    C15     C    0.08011   0.02273   0.25387   1.000
    C16     C    0.08006   0.52294   0.25396   1.000
    C17     C    0.58021   0.02282   0.25382   1.000
    C18     C    0.58019   0.52299   0.25390   1.000
    C19     C    0.05592   0.06449   0.31178   1.000
    C20     C    0.05592   0.56472   0.31187   1.000
    C21     C    0.55610   0.06459   0.31178   1.000
    C22     C    0.55614   0.56477   0.31188   1.000
    C23     C    0.08074   0.08180   0.39082   1.000
    C24     C    0.08078   0.58208   0.39089   1.000
    C25     C    0.58101   0.08193   0.39070   1.000
    C26     C    0.58107   0.58213   0.39088   1.000
    C27     C    0.05353   0.01536   0.17455   1.000
    C28     C    0.05345   0.51551   0.17465   1.000
    C29     C    0.55353   0.01541   0.17455   1.000
    C30     C    0.55349   0.51554   0.17464   1.000
    C31     C    0.13345   0.48809   0.26646   1.000
    Fe32    Fe   0.00006   0.99999   0.99976   1.000
    C33     C    0.13351   0.98791   0.26639   1.000
    C34     C    0.63359   0.48813   0.26630   1.000
    C35     C    0.63362   0.98799   0.26623   1.000
    C36     C    0.99970   0.09273   0.28870   1.000
    C37     C    0.99965   0.59290   0.28886   1.000
    C38     C    0.49982   0.09278   0.28885   1.000
    C39     C    0.49986   0.59298   0.28897   1.000
    C40     C    0.38393   0.05647   0.07368   1.000
    C41     C    0.38396   0.55672   0.07362   1.000
    C42     C    0.88393   0.05643   0.07361   1.000
    C43     C    0.88397   0.55662   0.07359   1.000
    C44     C    0.05385   0.11918   0.93436   1.000
    C45     C    0.05399   0.61915   0.93430   1.000
    C46     C    0.55408   0.11912   0.93439   1.000
    C47     C    0.55424   0.61908   0.93434   1.000
    C48     C    0.16997   0.47710   0.75399   1.000
    C49     C    0.16989   0.97727   0.75390   1.000
    C50     C    0.66988   0.47701   0.75384   1.000
    C51     C    0.66991   0.97719   0.75370   1.000
    C52     C    0.19409   0.43531   0.81192   1.000
    C53     C    0.19408   0.93553   0.81185   1.000
    C54     C    0.69400   0.43527   0.81185   1.000
    C55     C    0.69406   0.93547   0.81174   1.000
    C56     C    0.16921   0.41796   0.89094   1.000
    C57     C    0.16925   0.91820   0.89080   1.000
    C58     C    0.66914   0.41792   0.89088   1.000
    C59     C    0.66921   0.91814   0.89078   1.000
    C60     C    0.19655   0.48451   0.67465   1.000
    C61     C    0.19645   0.98463   0.67458   1.000
    C62     C    0.69658   0.48442   0.67456   1.000
    C63     C    0.69657   0.98458   0.67445   1.000
    C64     C    0.11649   0.01211   0.76642   1.000
    C65     C    0.11660   0.51198   0.76649   1.000
    C66     C    0.61651   0.01203   0.76619   1.000
    C67     C    0.61648   0.51185   0.76625   1.000
    C68     C    0.25034   0.40708   0.78890   1.000
    C69     C    0.25032   0.90730   0.78881   1.000
    C70     C    0.75029   0.40711   0.78891   1.000
    C71     C    0.75033   0.90726   0.78879   1.000
    C72     C    0.36594   0.44331   0.57367   1.000
    C73     C    0.36596   0.94345   0.57373   1.000
    C74     C    0.86623   0.44328   0.57361   1.000
    C75     C    0.86625   0.94356   0.57367   1.000
    C76     C    0.19596   0.38092   0.43430   1.000
    C77     C    0.19603   0.88082   0.43440   1.000
    C78     C    0.69598   0.38088   0.43429   1.000
    C79     C    0.69614   0.88091   0.43434   1.000
    C80     C    0.42000   0.27294   0.24544   1.000
    C81     C    0.42009   0.77303   0.24546   1.000
    C82     C    0.92010   0.27288   0.24545   1.000
    C83     C    0.92009   0.77303   0.24547   1.000
    C84     C    0.44401   0.31464   0.18735   1.000
    C85     C    0.44414   0.81466   0.18732   1.000
    C86     C    0.94418   0.31458   0.18741   1.000
    C87     C    0.94426   0.81463   0.18739   1.000
    C88     C    0.41902   0.33196   0.10830   1.000
    C89     C    0.41916   0.83196   0.10831   1.000
    C90     C    0.91929   0.33190   0.10830   1.000
    C91     C    0.91940   0.83191   0.10831   1.000
    C92     C    0.44669   0.26561   0.32476   1.000
    C93     C    0.44675   0.76576   0.32480   1.000
    C94     C    0.94674   0.26555   0.32479   1.000
    C95     C    0.94668   0.76576   0.32484   1.000
    C96     C    0.36666   0.23805   0.23309   1.000
    C97     C    0.36673   0.73817   0.23310   1.000
    C98     C    0.86676   0.23801   0.23301   1.000
    C99     C    0.86673   0.73821   0.23303   1.000
    C100    C    0.74976   0.59292   0.21055   1.000
    C101    C    0.13381   0.05643   0.42581   1.000
    C102    C    0.13385   0.55671   0.42590   1.000
    C103    C    0.63410   0.05656   0.42573   1.000
    C104    C    0.50031   0.34280   0.21010   1.000
    C105    C    0.50047   0.84278   0.21002   1.000
    C106    C    0.00000   0.34274   0.21029   1.000
    C107    C    0.00000   0.84276   0.21024   1.000
    C108    C    0.11620   0.30649   0.42613   1.000
    C109    C    0.11617   0.80658   0.42613   1.000
    C110    C    0.61607   0.30657   0.42610   1.000
    C111    C    0.61618   0.80670   0.42612   1.000
    C112    C    0.44586   0.36891   0.56550   1.000
    C113    C    0.44594   0.86915   0.56553   1.000
    C114    C    0.94618   0.36896   0.56549   1.000
    C115    C    0.94617   0.86926   0.56554   1.000
    C116    C    0.32994   0.22690   0.74549   1.000
    C117    C    0.33001   0.72704   0.74552   1.000
    C118    C    0.82995   0.22704   0.74537   1.000
    C119    C    0.82996   0.72711   0.74535   1.000
    C120    C    0.30584   0.18529   0.68737   1.000
    C121    C    0.30597   0.68536   0.68743   1.000
    C122    C    0.80587   0.18539   0.68728   1.000
    C123    C    0.80593   0.68537   0.68735   1.000
    C124    C    0.33077   0.16799   0.60833   1.000
    C125    C    0.33092   0.66804   0.60840   1.000
    C126    C    0.83085   0.16809   0.60820   1.000
    C127    C    0.83089   0.66805   0.60834   1.000
    C128    C    0.30327   0.23418   0.82482   1.000
    C129    C    0.30329   0.73440   0.82481   1.000
    C130    C    0.80334   0.23431   0.82472   1.000
    C131    C    0.80335   0.73445   0.82470   1.000
    C132    C    0.11679   0.23800   0.26661   1.000
    C133    C    0.11674   0.73814   0.26655   1.000
    C134    C    0.61668   0.23814   0.26631   1.000
    C135    C    0.61675   0.73827   0.26638   1.000
    C136    C    0.25043   0.34281   0.28928   1.000
    C137    C    0.38332   0.26171   0.73312   1.000
    C138    C    0.38338   0.76187   0.73317   1.000
    C139    C    0.88332   0.26186   0.73297   1.000
    C140    C    0.88329   0.76199   0.73290   1.000
    C141    C    0.24952   0.15718   0.71012   1.000
    C142    C    0.24966   0.65723   0.71021   1.000
    C143    C    0.74956   0.15726   0.71003   1.000
    C144    C    0.74967   0.65717   0.71019   1.000
    C145    C    0.13374   0.19341   0.92614   1.000
    C146    C    0.13380   0.69352   0.92615   1.000
    C147    C    0.63399   0.19338   0.92612   1.000
    C148    C    0.63406   0.69349   0.92613   1.000
    C149    C    0.30391   0.13071   0.06551   1.000
    C150    C    0.30395   0.63101   0.06551   1.000
    C151    C    0.80402   0.13076   0.06543   1.000
    C152    C    0.80407   0.63101   0.06544   1.000
    C153    C    0.41987   0.47702   0.74562   1.000
    C154    C    0.41985   0.97719   0.74564   1.000
    C155    C    0.92001   0.47704   0.74558   1.000
    C156    C    0.91995   0.97725   0.74560   1.000
    C157    C    0.44393   0.43522   0.68766   1.000
    C158    C    0.44396   0.93543   0.68768   1.000
    C159    C    0.94415   0.43526   0.68765   1.000
    C160    C    0.94413   0.93551   0.68772   1.000
    C161    C    0.41900   0.41787   0.60867   1.000
    C162    C    0.41905   0.91807   0.60869   1.000
    C163    C    0.91930   0.41791   0.60862   1.000
    C164    C    0.91931   0.91819   0.60868   1.000
    C165    C    0.44656   0.48447   0.82489   1.000
    C166    C    0.44652   0.98460   0.82491   1.000
    C167    C    0.94664   0.48447   0.82488   1.000
    C168    C    0.94655   0.98463   0.82495   1.000
    C169    C    0.36644   0.01202   0.73322   1.000
    C170    C    0.36648   0.51188   0.73320   1.000
    C171    C    0.86654   0.01207   0.73313   1.000
    C172    C    0.86662   0.51189   0.73308   1.000
    C173    C    0.50020   0.40701   0.71059   1.000
    C174    C    0.50024   0.90723   0.71062   1.000
    C175    C    0.00000   0.40708   0.71068   1.000
    C176    C    0.00000   0.90727   0.71079   1.000
    C177    C    0.11616   0.44338   0.92594   1.000
    C178    C    0.11618   0.94358   0.92586   1.000
    C179    C    0.61607   0.44329   0.92591   1.000
    C180    C    0.61612   0.94350   0.92578   1.000
    C181    C    0.44581   0.38092   0.06518   1.000
    C182    C    0.44598   0.88087   0.06509   1.000
    C183    C    0.94609   0.38085   0.06522   1.000
    C184    C    0.94622   0.88082   0.06513   1.000
    C185    C    0.33017   0.02278   0.24573   1.000
    C186    C    0.33018   0.52299   0.24568   1.000
    C187    C    0.83019   0.02274   0.24554   1.000
    C188    C    0.83011   0.52290   0.24553   1.000
    C189    C    0.30601   0.06450   0.18770   1.000
    C190    C    0.30605   0.56474   0.18770   1.000
    C191    C    0.80601   0.06448   0.18761   1.000
    C192    C    0.80601   0.56469   0.18759   1.000
    C193    C    0.33084   0.08182   0.10869   1.000
    C194    C    0.33089   0.58209   0.10865   1.000
    C195    C    0.83086   0.08181   0.10858   1.000
    C196    C    0.83091   0.58204   0.10858   1.000
    C197    C    0.30351   0.01540   0.32502   1.000
    C198    C    0.30351   0.51558   0.32497   1.000
    C199    C    0.80363   0.01539   0.32489   1.000
    C200    C    0.80352   0.51550   0.32487   1.000
    C201    C    0.38358   0.48814   0.23324   1.000
    C202    C    0.38358   0.98796   0.23328   1.000
    C203    C    0.88348   0.48802   0.23305   1.000
    C204    C    0.88358   0.98790   0.23306   1.000
    C205    C    0.24974   0.09270   0.21070   1.000
    C206    C    0.24977   0.59290   0.21068   1.000
    C207    C    0.74977   0.09271   0.21063   1.000
    N208    N    0.17704   0.79225   0.77173   1.000
    N209    N    0.67710   0.29206   0.77160   1.000
    N210    N    0.67721   0.79213   0.77140   1.000
    N211    N    0.45230   0.13647   0.77170   1.000
    N212    N    0.45245   0.63647   0.77160   1.000
    N213    N    0.95223   0.13649   0.77133   1.000
    N214    N    0.95232   0.63653   0.77129   1.000
    N215    N    0.42737   0.21349   0.54134   1.000
    C216    C    0.63412   0.55669   0.42587   1.000
    C217    C    0.30390   0.11911   0.56513   1.000
    C218    C    0.30406   0.61912   0.56524   1.000
    C219    C    0.80407   0.11917   0.56508   1.000
    C220    C    0.80415   0.61907   0.56520   1.000
    C221    C    0.07997   0.22699   0.75405   1.000
    C222    C    0.07996   0.72712   0.75407   1.000
    C223    C    0.57998   0.22697   0.75404   1.000
    C224    C    0.58008   0.72704   0.75405   1.000
    C225    C    0.05580   0.18537   0.81211   1.000
    C226    C    0.05588   0.68542   0.81210   1.000
    C227    C    0.55593   0.18533   0.81218   1.000
    C228    C    0.55606   0.68535   0.81216   1.000
    C229    C    0.08067   0.16809   0.89118   1.000
    C230    C    0.08078   0.66811   0.89115   1.000
    C231    C    0.58090   0.16803   0.89119   1.000
    C232    C    0.58104   0.66803   0.89117   1.000
    C233    C    0.05340   0.23426   0.67467   1.000
    C234    C    0.05334   0.73444   0.67472   1.000
    C235    C    0.55333   0.23423   0.67470   1.000
    C236    C    0.55338   0.73438   0.67474   1.000
    C237    C    0.13333   0.26182   0.76651   1.000
    C238    C    0.13330   0.76200   0.76651   1.000
    C239    C    0.63334   0.26183   0.76640   1.000
    C240    C    0.63344   0.76189   0.76636   1.000
    C241    C    0.99952   0.15724   0.78924   1.000
    C242    C    0.99961   0.65726   0.78922   1.000
    C243    C    0.49961   0.15720   0.78947   1.000
    C244    C    0.49975   0.65721   0.78940   1.000
    C245    C    0.38387   0.19329   0.57338   1.000
    C246    C    0.38397   0.69343   0.57341   1.000
    C247    C    0.88395   0.19341   0.57339   1.000
    C248    C    0.88391   0.69351   0.57337   1.000
    C249    C    0.05390   0.13073   0.43397   1.000
    C250    C    0.05391   0.63104   0.43401   1.000
    C251    C    0.55412   0.13085   0.43395   1.000
    C252    C    0.55420   0.63108   0.43400   1.000
    C253    C    0.17013   0.27287   0.25415   1.000
    C254    C    0.17011   0.77296   0.25413   1.000
    C255    C    0.67005   0.27298   0.25399   1.000
    C256    C    0.67012   0.77309   0.25400   1.000
    C257    C    0.19418   0.31461   0.31215   1.000
    C258    C    0.19421   0.81460   0.31220   1.000
    C259    C    0.69408   0.31465   0.31210   1.000
    C260    C    0.69420   0.81472   0.31212   1.000
    C261    C    0.16923   0.33193   0.39116   1.000
    C262    C    0.16926   0.83190   0.39121   1.000
    C263    C    0.66913   0.33197   0.39110   1.000
    C264    C    0.66927   0.83201   0.39116   1.000
    C265    C    0.19672   0.26553   0.17480   1.000
    C266    C    0.19671   0.76568   0.17477   1.000
    C267    C    0.69678   0.26563   0.17470   1.000
    C268    C    0.69680   0.76580   0.17468   1.000
    C269    C    0.25051   0.84274   0.28942   1.000
    C270    C    0.75040   0.34277   0.28933   1.000
    C271    C    0.75051   0.84285   0.28935   1.000
    C272    C    0.36600   0.30649   0.07338   1.000
    C273    C    0.36607   0.80661   0.07341   1.000
    C274    C    0.86626   0.30649   0.07336   1.000
    C275    C    0.86633   0.80659   0.07335   1.000
    C276    C    0.19604   0.36898   0.93406   1.000
    C277    C    0.19609   0.86926   0.93404   1.000
    C278    C    0.69607   0.36900   0.93403   1.000
    C279    C    0.69615   0.86926   0.93398   1.000
    N280    N    0.03507   0.00936   0.10656   1.000
    N281    N    0.03503   0.50943   0.10660   1.000
    N282    N    0.53502   0.00934   0.10659   1.000
    N283    N    0.53500   0.50942   0.10668   1.000
    N284    N    0.17726   0.45787   0.27172   1.000
    N285    N    0.17734   0.95773   0.27165   1.000
    N286    N    0.67741   0.45792   0.27149   1.000
    N287    N    0.67744   0.95779   0.27141   1.000
    N288    N    0.45256   0.11359   0.27085   1.000
    N289    N    0.45260   0.61378   0.27097   1.000
    N290    N    0.95248   0.11360   0.27058   1.000
    N291    N    0.95238   0.61368   0.27078   1.000
    N292    N    0.42744   0.03628   0.04159   1.000
    N293    N    0.42745   0.53646   0.04155   1.000
    N294    N    0.92744   0.03620   0.04158   1.000
    N295    N    0.92744   0.53633   0.04153   1.000
    N296    N    0.03072   0.07739   0.96677   1.000
    N297    N    0.03085   0.57735   0.96668   1.000
    N298    N    0.53085   0.07736   0.96674   1.000
    N299    N    0.53100   0.57731   0.96666   1.000
    N300    N    0.21491   0.49060   0.60662   1.000
    N301    N    0.21485   0.99063   0.60656   1.000
    N302    N    0.71513   0.49050   0.60662   1.000
    N303    N    0.71512   0.99064   0.60650   1.000
    N304    N    0.07266   0.04230   0.77165   1.000
    N305    N    0.07281   0.54222   0.77174   1.000
    N306    N    0.57269   0.04224   0.77144   1.000
    N307    N    0.57267   0.54207   0.77140   1.000
    N308    N    0.29757   0.38624   0.77088   1.000
    N309    N    0.29754   0.88644   0.77073   1.000
    N310    N    0.79756   0.38634   0.77089   1.000
    N311    N    0.79758   0.88644   0.77078   1.000
    N312    N    0.32249   0.46364   0.54160   1.000
    N313    N    0.32246   0.96369   0.54167   1.000
    N314    N    0.82273   0.46353   0.54155   1.000
    N315    N    0.82275   0.96376   0.54157   1.000
    N316    N    0.21909   0.42273   0.46660   1.000
    N317    N    0.21917   0.92261   0.46678   1.000
    N318    N    0.71925   0.42262   0.46662   1.000
    N319    N    0.71940   0.92265   0.46668   1.000
    N320    N    0.46507   0.25951   0.39279   1.000
    N321    N    0.46514   0.75975   0.39284   1.000
    N322    N    0.96515   0.25948   0.39281   1.000
    N323    N    0.96508   0.75979   0.39288   1.000
    N324    N    0.32291   0.20780   0.22795   1.000
    N325    N    0.32297   0.70795   0.22790   1.000
    N326    N    0.82301   0.20776   0.22700   1.000
    N327    N    0.82295   0.70799   0.22781   1.000
    N328    N    0.04774   0.36348   0.22822   1.000
    N329    N    0.04785   0.86349   0.22815   1.000
    N330    N    0.54761   0.36355   0.22790   1.000
    N331    N    0.54779   0.86350   0.22778   1.000
    N332    N    0.07275   0.28614   0.45810   1.000
    N333    N    0.07264   0.78640   0.45815   1.000
    N334    N    0.57261   0.28626   0.45811   1.000
    N335    N    0.57268   0.78650   0.45810   1.000
    N336    N    0.46906   0.32715   0.53306   1.000
    N337    N    0.46916   0.82742   0.53306   1.000
    N338    N    0.96933   0.32720   0.53299   1.000
    N339    N    0.96930   0.82750   0.53302   1.000
    N340    N    0.28482   0.24018   0.89283   1.000
    N341    N    0.28484   0.74049   0.89280   1.000
    N342    N    0.78501   0.24031   0.89279   1.000
    N343    N    0.78504   0.74054   0.89276   1.000
    N344    N    0.42712   0.29189   0.72700   1.000
    N345    N    0.42716   0.79208   0.72798   1.000
    N346    N    0.92711   0.29205   0.72774   1.000
    N347    N    0.92704   0.79224   0.72768   1.000
    N348    N    0.20222   0.13646   0.72797   1.000
    N349    N    0.20236   0.63653   0.72810   1.000
    N350    N    0.70227   0.13651   0.72780   1.000
    N351    N    0.70242   0.63636   0.72811   1.000
    N352    N    0.17724   0.21360   0.95819   1.000
    N353    N    0.17725   0.71384   0.95816   1.000
    N354    N    0.67748   0.21362   0.95815   1.000
    N355    N    0.67750   0.71388   0.95813   1.000
    N356    N    0.28068   0.17244   0.03302   1.000
    N357    N    0.28074   0.67275   0.03302   1.000
    N358    N    0.78091   0.17255   0.03295   1.000
    N359    N    0.78097   0.67282   0.03297   1.000
    N360    N    0.46504   0.49059   0.89286   1.000
    N361    N    0.46503   0.99065   0.89287   1.000
    N362    N    0.96510   0.49056   0.89286   1.000
    N363    N    0.96503   0.99062   0.89292   1.000
    N364    N    0.32261   0.04222   0.72803   1.000
    N365    N    0.32267   0.54210   0.72800   1.000
    N366    N    0.82270   0.04225   0.72787   1.000
    N367    N    0.82281   0.54211   0.72780   1.000
    N368    N    0.04768   0.38631   0.72880   1.000
    N369    N    0.04759   0.88641   0.72891   1.000
    N370    N    0.54745   0.38619   0.72861   1.000
    N371    N    0.54749   0.88642   0.72864   1.000
    N372    N    0.07268   0.46366   0.95800   1.000
    N373    N    0.07266   0.96379   0.95790   1.000
    N374    N    0.57258   0.46355   0.95799   1.000
    N375    N    0.57262   0.96370   0.95780   1.000
    N376    N    0.46904   0.42270   0.03288   1.000
    N377    N    0.46920   0.92262   0.03271   1.000
    N378    N    0.96926   0.42263   0.03284   1.000
    N379    N    0.96937   0.92259   0.03272   1.000
    N380    N    0.28495   0.00936   0.39295   1.000
    N381    N    0.28496   0.50950   0.39291   1.000
    N382    N    0.78520   0.00937   0.39289   1.000
    N383    N    0.78514   0.50939   0.39280   1.000
    N384    N    0.42738   0.45791   0.22800   1.000
    N385    N    0.42741   0.95778   0.22803   1.000
    N386    N    0.92727   0.45777   0.22780   1.000
    N387    N    0.92740   0.95769   0.22783   1.000
    N388    N    0.20249   0.11352   0.22873   1.000
    N389    N    0.20251   0.61367   0.22877   1.000
    N390    N    0.70254   0.11356   0.22868   1.000
    N391    N    0.70252   0.61377   0.22857   1.000
    N392    N    0.17732   0.03623   0.45780   1.000
    N393    N    0.17734   0.53645   0.45796   1.000
    N394    N    0.67761   0.03633   0.45700   1.000
    N395    N    0.67758   0.53636   0.45790   1.000
    N396    N    0.28065   0.07736   0.53277   1.000
    N397    N    0.28080   0.57738   0.53290   1.000
    N398    N    0.78092   0.07739   0.53269   1.000
    N399    N    0.78101   0.57726   0.53287   1.000
    N400    N    0.03504   0.24024   0.60660   1.000
    N401    N    0.03495   0.74050   0.60669   1.000
    N402    N    0.53492   0.24024   0.60667   1.000
    N403    N    0.53498   0.74048   0.60672   1.000
    N404    N    0.17710   0.29204   0.77170   1.000
    N405    N    0.42744   0.71373   0.54139   1.000
    N406    N    0.92747   0.21361   0.54137   1.000
    N407    N    0.92737   0.71385   0.54139   1.000
    N408    N    0.03081   0.17252   0.46649   1.000
    N409    N    0.03077   0.67281   0.46651   1.000
    N410    N    0.53090   0.17258   0.46642   1.000
    N411    N    0.53099   0.67284   0.46647   1.000
    N412    N    0.21502   0.25944   0.10673   1.000
    N413    N    0.21503   0.75970   0.10669   1.000
    N414    N    0.71525   0.25952   0.10672   1.000
    N415    N    0.71526   0.75979   0.10668   1.000
    N416    N    0.07304   0.20775   0.27183   1.000
    N417    N    0.07296   0.70794   0.27179   1.000
    N418    N    0.57290   0.20793   0.27146   1.000
    N419    N    0.57296   0.70807   0.27162   1.000
    N420    N    0.29768   0.36360   0.27134   1.000
    N421    N    0.29780   0.86349   0.27157   1.000
    N422    N    0.79770   0.36347   0.27145   1.000
    N423    N    0.79780   0.86358   0.27148   1.000
    N424    N    0.32257   0.28609   0.04139   1.000
    N425    N    0.32257   0.78638   0.04140   1.000
    N426    N    0.82281   0.28617   0.04132   1.000
    N427    N    0.82283   0.78640   0.04130   1.000
    N428    N    0.21914   0.32717   0.96654   1.000
    N429    N    0.21918   0.82746   0.96655   1.000
    N430    N    0.71930   0.32725   0.96649   1.000
    N431    N    0.71936   0.82752   0.96646   1.000
loop_
    _geom_bond_atom_site_label_1
    _geom_bond_atom_site_label_2
    _geom_bond_distance
    _geom_bond_site_symmetry_2
    _ccdc_geom_bond_type
    N377   C182      1.16926      .   S
    N377   Fe1       1.90242  1_554   S
    N379   C184      1.16919      .   S
    N379   Fe32      1.90193  1_654   S
    N378   C183      1.16926      .   S
    N378   Fe0       1.90261  1_654   S
    N376   C181      1.16926      .   S
    N376   Fe2       1.90298  1_554   S
    N358   C151      1.16914      .   S
    N358   Fe13      1.90120  1_554   S
    N359   C152      1.16928      .   S
    N359   Fe14      1.90250  1_554   S
    N357   C150      1.16928      .   S
    N357   Fe12      1.90317  1_554   S
    N356   C149      1.16920      .   S
    N356   Fe11      1.90209  1_554   S
    N427   C275      1.17024      .   S
    N427   Fe14      1.90050  1_554   S
    N426   C274      1.17033      .   S
    N426   Fe13      1.90157  1_554   S
    N424   C272      1.17031      .   S
    N424   Fe11      1.90276  1_554   S
    N425   C273      1.17025      .   S
    N425   Fe12      1.90207  1_554   S
    N295   C43       1.17029      .   S
    N295   Fe0       1.90192  1_654   S
    N293   C41       1.17027      .   S
    N293   Fe2       1.90197  1_554   S
    N294   C42       1.17010      .   S
    N294   Fe32      1.90103  1_644   S
    N292   C40       1.17023      .   S
    N292   Fe1       1.90128  1_544   S
    C182   C89       1.40564      .   S
    C184   C91       1.40536      .   S
    C181   C88       1.40548      .   S
    C183   C90       1.40515      .   S
    C151   C195      1.40531      .   S
    C152   C196      1.40564      .   S
    C150   C194      1.40567      .   S
    C149   C193      1.40551      .   S
    C275   C91       1.40594      .   S
    C274   C90       1.40570      .   S
    C272   C88       1.40606      .   S
    C273   C89       1.40617      .   S
    C43    C196      1.40616      .   S
    C42    C195      1.40590      .   S
    C41    C194      1.40616      .   S
    C40    C193      1.40609      .   S
    N280   C27       1.16685      .   S
    N280   Fe32      1.88251  1_544   S
    N282   C29       1.16689      .   S
    N282   Fe1       1.88319  1_544   S
    N281   C28       1.16762      .   S
    N281   Fe0       1.88272  1_554   S
    N283   C30       1.16692      .   S
    N283   Fe2       1.88389  1_554   S
    N415   C268      1.16695      .   S
    N415   Fe14      1.88456  1_554   S
    N413   C266      1.16702      .   S
    N413   Fe12      1.88347  1_554   S
    N414   C267      1.16691      .   S
    N414   Fe13      1.88463  1_554   S
    N412   C265      1.16696      .   S
    N412   Fe11      1.88384  1_554   S
    C88    C84       1.42823      .   S
    C90    C86       1.42831      .   S
    C91    C87       1.42736      .   S
    C89    C85       1.42750      .   S
    C196   C192      1.42722      .   S
    C195   C191      1.42702      .   S
    C194   C190      1.42736      .   S
    C193   C189      1.42660      .   S
    C29    C17       1.40474      .   S
    C27    C15       1.40445      .   S
    C30    C18       1.40488      .   S
    C28    C16       1.40473      .   S
    C268   C256      1.40506      .   S
    C267   C255      1.40524      .   S
    C266   C254      1.40480      .   S
    C265   C253      1.40487      .   S
    C85    C105      1.42824      .   S
    C85    C81       1.40595      .   S
    C84    C104      1.42827      .   S
    C84    C80       1.40606      .   S
    C87    C107      1.41770  1_655   S
    C87    C83       1.40589      .   S
    C86    C106      1.41962  1_655   S
    C86    C82       1.40604      .   S
    C192   C100      1.42821      .   S
    C192   C188      1.40596      .   S
    C191   C207      1.42824      .   S
    C191   C187      1.40588      .   S
    C189   C205      1.42839      .   S
    C189   C185      1.40640      .   S
    C190   C206      1.42823      .   S
    C190   C186      1.40604      .   S
    C105   N331      1.16831      .   S
    C104   N330      1.16829      .   S
    C107   N329      1.17941      .   S
    C106   N328      1.17749      .   S
    C100   N391      1.16837      .   S
    C207   N390      1.16831      .   S
    C206   N389      1.16835      .   S
    C205   N388      1.16835      .   S
    N326   C98       1.17116      .   S
    N386   C203      1.17022      .   S
    N327   C99       1.17019      .   S
    N387   C204      1.17021      .   S
    N325   C97       1.17018      .   S
    N324   C96       1.17017      .   S
    N384   C201      1.17022      .   S
    N385   C202      1.17021      .   S
    C98    C82       1.41241      .   S
    C99    C83       1.41236      .   S
    C203   C188      1.41239      .   S
    C204   C187      1.41236  1_565   S
    C96    C80       1.41243      .   S
    C97    C81       1.41237      .   S
    C201   C186      1.41238      .   S
    C202   C185      1.41238  1_565   S
    C80    C92       1.40516      .   S
    C82    C94       1.40505      .   S
    C81    C93       1.40506      .   S
    C83    C95       1.40484      .   S
    C188   C200      1.40489      .   S
    C187   C199      1.40464      .   S
    C186   C198      1.40498      .   S
    C185   C197      1.40475      .   S
    C17    C35       1.41239  1_545   S
    C17    C21       1.40591      .   S
    C15    C33       1.41238  1_545   S
    C15    C19       1.40594      .   S
    C18    C34       1.41241      .   S
    C18    C22       1.40606      .   S
    C16    C31       1.41240      .   S
    C16    C20       1.40597      .   S
    C255   C134      1.41235      .   S
    C255   C259      1.40607      .   S
    C256   C135      1.41235      .   S
    C256   C260      1.40596      .   S
    C254   C133      1.41235      .   S
    C254   C258      1.40585      .   S
    C253   C132      1.41242      .   S
    C253   C257      1.40602      .   S
    C35    N287      1.17021      .   S
    C34    N286      1.17021      .   S
    C134   N418      1.17018      .   S
    C135   N419      1.17019      .   S
    C33    N285      1.17019      .   S
    C31    N284      1.17023      .   S
    C133   N417      1.17019      .   S
    C132   N416      1.17020      .   S
    N290   C36       1.16861      .   S
    N291   C37       1.16865      .   S
    N288   C38       1.16835      .   S
    N289   C39       1.16833      .   S
    N420   C136      1.16835      .   S
    N422   C270      1.16833      .   S
    N423   C271      1.16834      .   S
    N421   C269      1.16833      .   S
    C36    C19       1.42823  1_655   S
    C38    C21       1.42829      .   S
    C37    C20       1.42823  1_655   S
    C39    C22       1.42825      .   S
    C136   C257      1.42818      .   S
    C270   C259      1.42827      .   S
    C271   C260      1.42821      .   S
    C269   C258      1.42816      .   S
    C19    C23       1.42683      .   S
    C21    C25       1.42612      .   S
    C20    C24       1.42715      .   S
    C22    C26       1.42746      .   S
    C259   C263      1.42731      .   S
    C260   C264      1.42751      .   S
    C257   C261      1.42741      .   S
    C258   C262      1.42728      .   S
    C92    N320      1.16697      .   S
    C94    N322      1.16700      .   S
    C93    N321      1.16703      .   S
    C95    N323      1.16693      .   S
    C200   N383      1.16559      .   S
    C199   N382      1.16672      .   S
    C198   N381      1.16691      .   S
    C197   N380      1.16674      .   S
    C25    C103      1.40657      .   S
    C25    C251      1.40609      .   S
    C23    C101      1.40585      .   S
    C23    C249      1.40520      .   S
    C26    C216      1.40621      .   S
    C26    C252      1.40560      .   S
    C24    C102      1.40613      .   S
    C24    C250      1.40557      .   S
    C263   C110      1.40643      .   S
    C263   C78       1.40593      .   S
    C264   C111      1.40616      .   S
    C264   C79       1.40559      .   S
    C261   C108      1.40615      .   S
    C261   C76       1.40563      .   S
    C262   C109      1.40605      .   S
    C262   C77       1.40541      .   S
    N320   Fe9       1.88443      .   S
    N383   Fe6       1.88448      .   S
    N322   Fe7       1.88431  1_655   S
    N321   Fe10      1.88421      .   S
    N323   Fe8       1.88391  1_655   S
    N382   Fe5       1.88261      .   S
    N381   Fe4       1.88416      .   S
    N380   Fe3       1.88255  1_545   S
    C103   N394      1.16473      .   S
    C101   N392      1.16955      .   S
    C216   N395      1.16995      .   S
    C102   N393      1.17020      .   S
    C110   N334      1.17031      .   S
    C111   N335      1.16986      .   S
    C108   N332      1.17023      .   S
    C109   N333      1.17023      .   S
    C251   N410      1.16921      .   S
    C249   N408      1.16915      .   S
    C252   N411      1.16940      .   S
    C250   N409      1.16924      .   S
    C78    N318      1.16926      .   S
    C76    N316      1.16891      .   S
    C79    N319      1.16926      .   S
    C77    N317      1.16917      .   S
    N394   Fe5       1.90620      .   S
    N392   Fe3       1.90030  1_545   S
    N395   Fe6       1.90271      .   S
    N393   Fe4       1.90120      .   S
    N335   Fe10      1.90232      .   S
    N332   Fe7       1.90168      .   S
    N334   Fe9       1.90258      .   S
    N333   Fe8       1.90095      .   S
    N410   Fe9       1.90175      .   S
    N411   Fe10      1.90292      .   S
    N408   Fe7       1.90091      .   S
    N409   Fe8       1.90229      .   S
    N316   Fe4       1.90240      .   S
    N318   Fe6       1.90306      .   S
    N319   Fe5       1.90261  1_565   S
    N317   Fe3       1.90126      .   S
    Fe5    N398      1.90176      .   S
    Fe5    N315      1.90035  1_545   S
    Fe5    N303      1.88320  1_545   S
    Fe3    N396      1.90293  1_565   S
    Fe3    N313      1.90201      .   S
    Fe3    N301      1.88342      .   S
    Fe7    N338      1.90249  1_455   S
    Fe7    N406      1.90148  1_455   S
    Fe7    N400      1.88343      .   S
    Fe9    N336      1.90288      .   S
    Fe9    N215      1.90177      .   S
    Fe9    N402      1.88433      .   S
    Fe6    N399      1.90222      .   S
    Fe6    N314      1.90133      .   S
    Fe6    N302      1.88414      .   S
    Fe4    N397      1.90300      .   S
    Fe4    N312      1.90242      .   S
    Fe4    N300      1.88319      .   S
    Fe8    N339      1.90123  1_455   S
    Fe8    N407      1.90214  1_455   S
    Fe8    N401      1.88408      .   S
    Fe10   N337      1.90167      .   S
    Fe10   N405      1.90245      .   S
    Fe10   N403      1.88439      .   S
    N398   C219      1.16920      .   S
    N396   C217      1.16929      .   S
    N399   C220      1.16925      .   S
    N397   C218      1.16930      .   S
    N338   C114      1.16920      .   S
    N339   C115      1.16913      .   S
    N337   C113      1.16922      .   S
    N336   C112      1.16913      .   S
    N215   C245      1.17032      .   S
    N406   C247      1.17028      .   S
    N407   C248      1.17030      .   S
    N405   C246      1.17038      .   S
    N314   C74       1.17026      .   S
    N315   C75       1.17018      .   S
    N312   C72       1.17028      .   S
    N313   C73       1.17023      .   S
    C219   C126      1.40481      .   S
    C217   C124      1.40561      .   S
    C220   C127      1.40564      .   S
    C218   C125      1.40573      .   S
    C114   C163      1.40558      .   S
    C112   C161      1.40596      .   S
    C113   C162      1.40546      .   S
    C115   C164      1.40527      .   S
    C248   C127      1.40616      .   S
    C245   C124      1.40618      .   S
    C247   C126      1.40550      .   S
    C246   C125      1.40629      .   S
    C74    C163      1.40607      .   S
    C72    C161      1.40631      .   S
    C75    C164      1.40589      .   S
    C73    C162      1.40610      .   S
    N303   C63       1.16703      .   S
    N301   C61       1.16686      .   S
    N400   C233      1.16712      .   S
    N302   C62       1.16699      .   S
    N300   C60       1.16696      .   S
    N402   C235      1.16699      .   S
    N401   C234      1.16695      .   S
    N403   C236      1.16702      .   S
    C126   C122      1.42851      .   S
    C124   C120      1.42748      .   S
    C127   C123      1.42749      .   S
    C125   C121      1.42766      .   S
    C163   C159      1.42716      .   S
    C161   C157      1.42730      .   S
    C164   C160      1.42685      .   S
    C162   C158      1.42714      .   S
    C63    C51       1.40420      .   S
    C62    C50       1.40498      .   S
    C61    C49       1.40415      .   S
    C60    C48       1.40472      .   S
    C233   C221      1.40482      .   S
    C235   C223      1.40506      .   S
    C234   C222      1.40503      .   S
    C236   C224      1.40518      .   S
    C122   C143      1.42818      .   S
    C122   C118      1.40589      .   S
    C123   C144      1.42818      .   S
    C123   C119      1.40592      .   S
    C120   C141      1.42816      .   S
    C120   C116      1.40590      .   S
    C121   C142      1.42825      .   S
    C121   C117      1.40601      .   S
    C159   C175      1.42038  1_655   S
    C159   C155      1.40611      .   S
    C157   C173      1.42827      .   S
    C157   C153      1.40603      .   S
    C158   C174      1.42828      .   S
    C158   C154      1.40600      .   S
    C160   C176      1.42144  1_655   S
    C160   C156      1.40551      .   S
    C143   N350      1.16810      .   S
    C141   N348      1.16835      .   S
    C144   N351      1.16837      .   S
    C142   N349      1.16834      .   S
    C173   N370      1.16836      .   S
    C174   N371      1.16836      .   S
    C175   N368      1.17675      .   S
    C176   N369      1.17563      .   S
    N344   C137      1.17128      .   S
    N347   C140      1.17019      .   S
    N346   C139      1.17019      .   S
    N367   C172      1.17025      .   S
    N366   C171      1.17021      .   S
    N345   C138      1.17018      .   S
    N365   C170      1.17021      .   S
    N364   C169      1.17022      .   S
    C140   C119      1.41241      .   S
    C139   C118      1.41234      .   S
    C172   C155      1.41239      .   S
    C137   C116      1.41237      .   S
    C171   C156      1.41227  1_545   S
    C138   C117      1.41239      .   S
    C170   C153      1.41240      .   S
    C169   C154      1.41239  1_545   S
    C119   C131      1.40499      .   S
    C118   C130      1.40486      .   S
    C116   C128      1.40512      .   S
    C117   C129      1.40517      .   S
    C155   C167      1.40473      .   S
    C156   C168      1.40508      .   S
    C153   C165      1.40491      .   S
    C154   C166      1.40464      .   S
    C51    C66       1.41249  1_565   S
    C51    C55       1.40649      .   S
    C50    C67       1.41236      .   S
    C50    C54       1.40610      .   S
    C49    C64       1.41245  1_565   S
    C49    C53       1.40620      .   S
    C48    C65       1.41240      .   S
    C48    C52       1.40602      .   S
    C223   C239      1.41238      .   S
    C223   C227      1.40595      .   S
    C221   C237      1.41237      .   S
    C221   C225      1.40587      .   S
    C224   C240      1.41242      .   S
    C224   C228      1.40608      .   S
    C222   C238      1.41239      .   S
    C222   C226      1.40598      .   S
    C66    N306      1.17019      .   S
    C67    N307      1.17013      .   S
    C240   N210      1.17015      .   S
    C239   N209      1.17018      .   S
    C64    N304      1.17021      .   S
    C65    N305      1.17022      .   S
    C237   N404      1.17012      .   S
    C238   N208      1.17020      .   S
    N309   C69       1.16835      .   S
    N311   C71       1.16834      .   S
    N308   C68       1.16826      .   S
    N310   C70       1.16832      .   S
    N214   C242      1.16860      .   S
    N213   C241      1.16860      .   S
    N212   C244      1.16830      .   S
    N211   C243      1.16833      .   S
    C71    C55       1.42824      .   S
    C69    C53       1.42821      .   S
    C68    C52       1.42834      .   S
    C70    C54       1.42825      .   S
    C242   C226      1.42820  1_655   S
    C241   C225      1.42818  1_655   S
    C244   C228      1.42836      .   S
    C243   C227      1.42822      .   S
    C55    C59       1.42712      .   S
    C53    C57       1.42573      .   S
    C54    C58       1.42721      .   S
    C52    C56       1.42726      .   S
    C226   C230      1.42745      .   S
    C225   C229      1.42730      .   S
    C228   C232      1.42761      .   S
    C227   C231      1.42743      .   S
    C131   N343      1.16687      .   S
    C130   N342      1.16698      .   S
    C129   N341      1.16695      .   S
    C128   N340      1.16691      .   S
    C167   N362      1.16694      .   S
    C165   N360      1.16697      .   S
    C166   N361      1.16686      .   S
    C168   N363      1.16671      .   S
    C59    C180      1.40610      .   S
    C59    C279      1.40555      .   S
    C57    C178      1.40641      .   S
    C57    C277      1.40598      .   S
    C58    C179      1.40621      .   S
    C58    C278      1.40574      .   S
    C56    C177      1.40612      .   S
    C56    C276      1.40557      .   S
    C230   C146      1.40612      .   S
    C230   C45       1.40565      .   S
    C232   C148      1.40630      .   S
    C232   C47       1.40581      .   S
    C229   C145      1.40594      .   S
    C229   C44       1.40532      .   S
    C231   C147      1.40622      .   S
    C231   C46       1.40566      .   S
    N343   Fe14      1.88417      .   S
    N342   Fe13      1.88394      .   S
    N341   Fe12      1.88496      .   S
    N340   Fe11      1.88480      .   S
    N362   Fe0       1.88402  1_655   S
    N360   Fe2       1.88414      .   S
    N361   Fe1       1.88341      .   S
    N363   Fe32      1.88333  1_655   S
    C180   N375      1.16974      .   S
    C178   N373      1.17013      .   S
    C179   N374      1.17030      .   S
    C177   N372      1.17026      .   S
    C147   N354      1.17031      .   S
    C148   N355      1.17035      .   S
    C145   N352      1.17025      .   S
    C146   N353      1.17027      .   S
    C279   N431      1.16919      .   S
    C278   N430      1.16926      .   S
    C277   N429      1.16918      .   S
    C276   N428      1.16927      .   S
    C45    N297      1.16923      .   S
    C47    N299      1.16932      .   S
    C44    N296      1.16921      .   S
    C46    N298      1.16925      .   S
    N375   Fe1       1.90177      .   S
    N373   Fe32      1.90065      .   S
    N374   Fe2       1.90199      .   S
    N372   Fe0       1.90138      .   S
    N355   Fe14      1.90294      .   S
    N354   Fe13      1.90233      .   S
    N353   Fe12      1.90167      .   S
    N352   Fe11      1.90064      .   S
    N431   Fe14      1.90226      .   S
    N430   Fe13      1.90334      .   S
    N428   Fe11      1.90256      .   S
    N429   Fe12      1.90126      .   S
    N299   Fe2       1.90314      .   S
    N297   Fe0       1.90248      .   S
    N298   Fe1       1.90272  1_545   S
    N296   Fe32      1.90191  1_545   S
