# CIF file generated by openbabel 2.4.90, see http://openbabel.sf.net
data_I
_chemical_name_common ''
_cell_length_a 21.933
_cell_length_b 21.947
_cell_length_c 15.978
_cell_angle_alpha 89.996
_cell_angle_beta 90
_cell_angle_gamma 89.962
_space_group_name_H-M_alt 'P 1'
_space_group_name_Hall 'P 1'
loop_
    _symmetry_equiv_pos_as_xyz
    x,y,z
loop_
    _atom_site_label
    _atom_site_type_symbol
    _atom_site_fract_x
    _atom_site_fract_y
    _atom_site_fract_z
    _atom_site_occupancy
    C0      C    0.00006   0.99999   0.99976   1.000
    C1      C    0.00008   0.49999   0.99977   1.000
    C2      C    0.50002   0.99998   0.99974   1.000
    C3      C    0.50002   0.50001   0.99978   1.000
    C4      C    0.24987   0.99998   0.49970   1.000
    C5      C    0.24989   0.50006   0.49977   1.000
    C6      C    0.75020   0.00002   0.49970   1.000
    C7      C    0.75018   0.49994   0.49975   1.000
    C8      C    0.00011   0.24984   0.49972   1.000
    C9      C    0.00002   0.75017   0.49978   1.000
    C10     C    0.49999   0.24984   0.49973   1.000
    C11     C    0.50006   0.75015   0.49978   1.000
    C12     C    0.24988   0.24979   0.99979   1.000
    C13     C    0.24990   0.75013   0.99977   1.000
    C14     C    0.75017   0.24988   0.99976   1.000
    C15     C    0.75020   0.75019   0.99973   1.000
    C16     C    0.08011   0.02273   0.25387   1.000
    C17     C    0.08006   0.52294   0.25396   1.000
    C18     C    0.58021   0.02282   0.25382   1.000
    C19     C    0.58019   0.52299   0.25390   1.000
    C20     C    0.05592   0.06449   0.31178   1.000
    C21     C    0.05592   0.56472   0.31187   1.000
    C22     C    0.55610   0.06459   0.31178   1.000
    C23     C    0.55614   0.56477   0.31188   1.000
    C24     C    0.08074   0.08180   0.39082   1.000
    C25     C    0.08078   0.58208   0.39089   1.000
    C26     C    0.58101   0.08193   0.39070   1.000
    C27     C    0.58107   0.58213   0.39088   1.000
    C28     C    0.05353   0.01536   0.17455   1.000
    C29     C    0.05345   0.51551   0.17465   1.000
    C30     C    0.55353   0.01541   0.17455   1.000
    C31     C    0.55349   0.51554   0.17464   1.000
    C32     C    0.13345   0.48809   0.26646   1.000
    C33     C    0.13351   0.98791   0.26639   1.000
    C34     C    0.63359   0.48813   0.26630   1.000
    C35     C    0.63362   0.98799   0.26623   1.000
    C36     C    0.99970   0.09273   0.28870   1.000
    C37     C    0.99965   0.59290   0.28886   1.000
    C38     C    0.49982   0.09278   0.28885   1.000
    C39     C    0.49986   0.59298   0.28897   1.000
    C40     C    0.38393   0.05647   0.07368   1.000
    C41     C    0.38396   0.55672   0.07362   1.000
    C42     C    0.88393   0.05643   0.07361   1.000
    C43     C    0.88397   0.55662   0.07359   1.000
    C44     C    0.05385   0.11918   0.93436   1.000
    C45     C    0.05399   0.61915   0.93430   1.000
    C46     C    0.55408   0.11912   0.93439   1.000
    C47     C    0.55424   0.61908   0.93434   1.000
    C48     C    0.16997   0.47710   0.75399   1.000
    C49     C    0.16989   0.97727   0.75390   1.000
    C50     C    0.66988   0.47701   0.75384   1.000
    C51     C    0.66991   0.97719   0.75370   1.000
    C52     C    0.19409   0.43531   0.81192   1.000
    C53     C    0.19408   0.93553   0.81185   1.000
    C54     C    0.69400   0.43527   0.81185   1.000
    C55     C    0.69406   0.93547   0.81174   1.000
    C56     C    0.16921   0.41796   0.89094   1.000
    C57     C    0.16925   0.91820   0.89080   1.000
    C58     C    0.66914   0.41792   0.89088   1.000
    C59     C    0.66921   0.91814   0.89078   1.000
    C60     C    0.19655   0.48451   0.67465   1.000
    C61     C    0.19645   0.98463   0.67458   1.000
    C62     C    0.69658   0.48442   0.67456   1.000
    C63     C    0.69657   0.98458   0.67445   1.000
    C64     C    0.11649   0.01211   0.76642   1.000
    C65     C    0.11660   0.51198   0.76649   1.000
    C66     C    0.61651   0.01203   0.76619   1.000
    C67     C    0.61648   0.51185   0.76625   1.000
    C68     C    0.25034   0.40708   0.78890   1.000
    C69     C    0.25032   0.90730   0.78881   1.000
    C70     C    0.75029   0.40711   0.78891   1.000
    C71     C    0.75033   0.90726   0.78879   1.000
    C72     C    0.36594   0.44331   0.57367   1.000
    C73     C    0.36596   0.94345   0.57373   1.000
    C74     C    0.86623   0.44328   0.57361   1.000
    C75     C    0.86625   0.94356   0.57367   1.000
    C76     C    0.19596   0.38092   0.43430   1.000
    C77     C    0.19603   0.88082   0.43440   1.000
    C78     C    0.69598   0.38088   0.43429   1.000
    C79     C    0.69614   0.88091   0.43434   1.000
    C80     C    0.42000   0.27294   0.24544   1.000
    C81     C    0.42009   0.77303   0.24546   1.000
    C82     C    0.92010   0.27288   0.24545   1.000
    C83     C    0.92009   0.77303   0.24547   1.000
    C84     C    0.44401   0.31464   0.18735   1.000
    C85     C    0.44414   0.81466   0.18732   1.000
    C86     C    0.94418   0.31458   0.18741   1.000
    C87     C    0.94426   0.81463   0.18739   1.000
    C88     C    0.41902   0.33196   0.10830   1.000
    C89     C    0.41916   0.83196   0.10831   1.000
    C90     C    0.91929   0.33190   0.10830   1.000
    C91     C    0.91940   0.83191   0.10831   1.000
    C92     C    0.44669   0.26561   0.32476   1.000
    C93     C    0.44675   0.76576   0.32480   1.000
    C94     C    0.94674   0.26555   0.32479   1.000
    C95     C    0.94668   0.76576   0.32484   1.000
    C96     C    0.36666   0.23805   0.23309   1.000
    C97     C    0.36673   0.73817   0.23310   1.000
    C98     C    0.86676   0.23801   0.23301   1.000
    C99     C    0.86673   0.73821   0.23303   1.000
    C100    C    0.50031   0.34280   0.21010   1.000
    C101    C    0.50047   0.84278   0.21002   1.000
    C102    C    0.00000   0.34274   0.21029   1.000
    C103    C    0.00000   0.84276   0.21024   1.000
    C104    C    0.11620   0.30649   0.42613   1.000
    C105    C    0.11617   0.80658   0.42613   1.000
    C106    C    0.61607   0.30657   0.42610   1.000
    C107    C    0.61618   0.80670   0.42612   1.000
    C108    C    0.44586   0.36891   0.56550   1.000
    C109    C    0.44594   0.86915   0.56553   1.000
    C110    C    0.94618   0.36896   0.56549   1.000
    C111    C    0.94617   0.86926   0.56554   1.000
    C112    C    0.32994   0.22690   0.74549   1.000
    C113    C    0.33001   0.72704   0.74552   1.000
    C114    C    0.82995   0.22704   0.74537   1.000
    C115    C    0.82996   0.72711   0.74535   1.000
    C116    C    0.30584   0.18529   0.68737   1.000
    C117    C    0.30597   0.68536   0.68743   1.000
    C118    C    0.80587   0.18539   0.68728   1.000
    C119    C    0.80593   0.68537   0.68735   1.000
    C120    C    0.33077   0.16799   0.60833   1.000
    C121    C    0.33092   0.66804   0.60840   1.000
    C122    C    0.83085   0.16809   0.60820   1.000
    C123    C    0.83089   0.66805   0.60834   1.000
    C124    C    0.30327   0.23418   0.82482   1.000
    C125    C    0.30329   0.73440   0.82481   1.000
    C126    C    0.80334   0.23431   0.82472   1.000
    C127    C    0.80335   0.73445   0.82470   1.000
    C128    C    0.38332   0.26171   0.73312   1.000
    C129    C    0.38338   0.76187   0.73317   1.000
    C130    C    0.88332   0.26186   0.73297   1.000
    C131    C    0.88329   0.76199   0.73290   1.000
    C132    C    0.24952   0.15718   0.71012   1.000
    C133    C    0.24966   0.65723   0.71021   1.000
    C134    C    0.74956   0.15726   0.71003   1.000
    C135    C    0.74967   0.65717   0.71019   1.000
    C136    C    0.13374   0.19341   0.92614   1.000
    C137    C    0.13380   0.69352   0.92615   1.000
    C138    C    0.63399   0.19338   0.92612   1.000
    C139    C    0.63406   0.69349   0.92613   1.000
    C140    C    0.30391   0.13071   0.06551   1.000
    C141    C    0.30395   0.63101   0.06551   1.000
    C142    C    0.80402   0.13076   0.06543   1.000
    C143    C    0.80407   0.63101   0.06544   1.000
    C144    C    0.41987   0.47702   0.74562   1.000
    C145    C    0.41985   0.97719   0.74564   1.000
    C146    C    0.92001   0.47704   0.74558   1.000
    C147    C    0.91995   0.97725   0.74560   1.000
    C148    C    0.44393   0.43522   0.68766   1.000
    C149    C    0.44396   0.93543   0.68768   1.000
    C150    C    0.94415   0.43526   0.68765   1.000
    C151    C    0.94413   0.93551   0.68772   1.000
    C152    C    0.41900   0.41787   0.60867   1.000
    C153    C    0.41905   0.91807   0.60869   1.000
    C154    C    0.91930   0.41791   0.60862   1.000
    C155    C    0.91931   0.91819   0.60868   1.000
    C156    C    0.44656   0.48447   0.82489   1.000
    C157    C    0.44652   0.98460   0.82491   1.000
    C158    C    0.94664   0.48447   0.82488   1.000
    C159    C    0.94655   0.98463   0.82495   1.000
    C160    C    0.36644   0.01202   0.73322   1.000
    C161    C    0.36648   0.51188   0.73320   1.000
    C162    C    0.86654   0.01207   0.73313   1.000
    C163    C    0.86662   0.51189   0.73308   1.000
    C164    C    0.50020   0.40701   0.71059   1.000
    C165    C    0.50024   0.90723   0.71062   1.000
    C166    C    0.00000   0.40708   0.71068   1.000
    C167    C    0.00000   0.90727   0.71079   1.000
    C168    C    0.11616   0.44338   0.92594   1.000
    C169    C    0.11618   0.94358   0.92586   1.000
    C170    C    0.61607   0.44329   0.92591   1.000
    C171    C    0.61612   0.94350   0.92578   1.000
    C172    C    0.44581   0.38092   0.06518   1.000
    C173    C    0.44598   0.88087   0.06509   1.000
    C174    C    0.94609   0.38085   0.06522   1.000
    C175    C    0.94622   0.88082   0.06513   1.000
    C176    C    0.33017   0.02278   0.24573   1.000
    C177    C    0.33018   0.52299   0.24568   1.000
    C178    C    0.83019   0.02274   0.24554   1.000
    C179    C    0.83011   0.52290   0.24553   1.000
    C180    C    0.30601   0.06450   0.18770   1.000
    C181    C    0.30605   0.56474   0.18770   1.000
    C182    C    0.80601   0.06448   0.18761   1.000
    C183    C    0.80601   0.56469   0.18759   1.000
    C184    C    0.33084   0.08182   0.10869   1.000
    C185    C    0.33089   0.58209   0.10865   1.000
    C186    C    0.83086   0.08181   0.10858   1.000
    C187    C    0.83091   0.58204   0.10858   1.000
    C188    C    0.30351   0.01540   0.32502   1.000
    C189    C    0.30351   0.51558   0.32497   1.000
    C190    C    0.80363   0.01539   0.32489   1.000
    C191    C    0.80352   0.51550   0.32487   1.000
    C192    C    0.38358   0.48814   0.23324   1.000
    C193    C    0.38358   0.98796   0.23328   1.000
    C194    C    0.88348   0.48802   0.23305   1.000
    C195    C    0.88358   0.98790   0.23306   1.000
    C196    C    0.24974   0.09270   0.21070   1.000
    C197    C    0.24977   0.59290   0.21068   1.000
    C198    C    0.74977   0.09271   0.21063   1.000
    C199    C    0.74976   0.59292   0.21055   1.000
    C200    C    0.13381   0.05643   0.42581   1.000
    C201    C    0.13385   0.55671   0.42590   1.000
    C202    C    0.63410   0.05656   0.42573   1.000
    C203    C    0.63412   0.55669   0.42587   1.000
    C204    C    0.30390   0.11911   0.56513   1.000
    C205    C    0.30406   0.61912   0.56524   1.000
    C206    C    0.80407   0.11917   0.56508   1.000
    C207    C    0.80415   0.61907   0.56520   1.000
    C208    C    0.07997   0.22699   0.75405   1.000
    C209    C    0.07996   0.72712   0.75407   1.000
    C210    C    0.57998   0.22697   0.75404   1.000
    C211    C    0.58008   0.72704   0.75405   1.000
    C212    C    0.05580   0.18537   0.81211   1.000
    C213    C    0.05588   0.68542   0.81210   1.000
    C214    C    0.55593   0.18533   0.81218   1.000
    C215    C    0.55606   0.68535   0.81216   1.000
    C216    C    0.08067   0.16809   0.89118   1.000
    C217    C    0.08078   0.66811   0.89115   1.000
    C218    C    0.58090   0.16803   0.89119   1.000
    C219    C    0.58104   0.66803   0.89117   1.000
    C220    C    0.05340   0.23426   0.67467   1.000
    C221    C    0.05334   0.73444   0.67472   1.000
    C222    C    0.55333   0.23423   0.67470   1.000
    C223    C    0.55338   0.73438   0.67474   1.000
    C224    C    0.13333   0.26182   0.76651   1.000
    C225    C    0.13330   0.76200   0.76651   1.000
    C226    C    0.63334   0.26183   0.76640   1.000
    C227    C    0.63344   0.76189   0.76636   1.000
    C228    C    0.99952   0.15724   0.78924   1.000
    C229    C    0.99961   0.65726   0.78922   1.000
    C230    C    0.49961   0.15720   0.78947   1.000
    C231    C    0.49975   0.65721   0.78940   1.000
    C232    C    0.38387   0.19329   0.57338   1.000
    C233    C    0.38397   0.69343   0.57341   1.000
    C234    C    0.88395   0.19341   0.57339   1.000
    C235    C    0.88391   0.69351   0.57337   1.000
    C236    C    0.05390   0.13073   0.43397   1.000
    C237    C    0.05391   0.63104   0.43401   1.000
    C238    C    0.55412   0.13085   0.43395   1.000
    C239    C    0.55420   0.63108   0.43400   1.000
    C240    C    0.17013   0.27287   0.25415   1.000
    C241    C    0.17011   0.77296   0.25413   1.000
    C242    C    0.67005   0.27298   0.25399   1.000
    C243    C    0.67012   0.77309   0.25400   1.000
    C244    C    0.19418   0.31461   0.31215   1.000
    C245    C    0.19421   0.81460   0.31220   1.000
    C246    C    0.69408   0.31465   0.31210   1.000
    C247    C    0.69420   0.81472   0.31212   1.000
    C248    C    0.16923   0.33193   0.39116   1.000
    C249    C    0.16926   0.83190   0.39121   1.000
    C250    C    0.66913   0.33197   0.39110   1.000
    C251    C    0.66927   0.83201   0.39116   1.000
    C252    C    0.19672   0.26553   0.17480   1.000
    C253    C    0.19671   0.76568   0.17477   1.000
    C254    C    0.69678   0.26563   0.17470   1.000
    C255    C    0.69680   0.76580   0.17468   1.000
    C256    C    0.11679   0.23800   0.26661   1.000
    C257    C    0.11674   0.73814   0.26655   1.000
    C258    C    0.61668   0.23814   0.26631   1.000
    C259    C    0.61675   0.73827   0.26638   1.000
    C260    C    0.25043   0.34281   0.28928   1.000
    C261    C    0.25051   0.84274   0.28942   1.000
    C262    C    0.75040   0.34277   0.28933   1.000
    C263    C    0.75051   0.84285   0.28935   1.000
    C264    C    0.36600   0.30649   0.07338   1.000
    C265    C    0.36607   0.80661   0.07341   1.000
    C266    C    0.86626   0.30649   0.07336   1.000
    C267    C    0.86633   0.80659   0.07335   1.000
    C268    C    0.19604   0.36898   0.93406   1.000
    C269    C    0.19609   0.86926   0.93404   1.000
    C270    C    0.69607   0.36900   0.93403   1.000
    C271    C    0.69615   0.86926   0.93398   1.000
    C272    C    0.03507   0.00936   0.10656   1.000
    C273    C    0.03503   0.50943   0.10660   1.000
    C274    C    0.53502   0.00934   0.10659   1.000
    C275    C    0.53500   0.50942   0.10668   1.000
    C276    C    0.17726   0.45787   0.27172   1.000
    C277    C    0.17734   0.95773   0.27165   1.000
    C278    C    0.67741   0.45792   0.27149   1.000
    C279    C    0.67744   0.95779   0.27141   1.000
    C280    C    0.45256   0.11359   0.27085   1.000
    C281    C    0.45260   0.61378   0.27097   1.000
    C282    C    0.95248   0.11360   0.27058   1.000
    C283    C    0.95238   0.61368   0.27078   1.000
    C284    C    0.42744   0.03628   0.04159   1.000
    C285    C    0.42745   0.53646   0.04155   1.000
    C286    C    0.92744   0.03620   0.04158   1.000
    C287    C    0.92744   0.53633   0.04153   1.000
    C288    C    0.03072   0.07739   0.96677   1.000
    C289    C    0.03085   0.57735   0.96668   1.000
    C290    C    0.53085   0.07736   0.96674   1.000
    C291    C    0.53100   0.57731   0.96666   1.000
    C292    C    0.21491   0.49060   0.60662   1.000
    C293    C    0.21485   0.99063   0.60656   1.000
    C294    C    0.71513   0.49050   0.60662   1.000
    C295    C    0.71512   0.99064   0.60650   1.000
    C296    C    0.07266   0.04230   0.77165   1.000
    C297    C    0.07281   0.54222   0.77174   1.000
    C298    C    0.57269   0.04224   0.77144   1.000
    C299    C    0.57267   0.54207   0.77140   1.000
    C300    C    0.29757   0.38624   0.77088   1.000
    C301    C    0.29754   0.88644   0.77073   1.000
    C302    C    0.79756   0.38634   0.77089   1.000
    C303    C    0.79758   0.88644   0.77078   1.000
    C304    C    0.32249   0.46364   0.54160   1.000
    C305    C    0.32246   0.96369   0.54167   1.000
    C306    C    0.82273   0.46353   0.54155   1.000
    C307    C    0.82275   0.96376   0.54157   1.000
    C308    C    0.21909   0.42273   0.46660   1.000
    C309    C    0.21917   0.92261   0.46678   1.000
    C310    C    0.71925   0.42262   0.46662   1.000
    C311    C    0.71940   0.92265   0.46668   1.000
    C312    C    0.46507   0.25951   0.39279   1.000
    C313    C    0.46514   0.75975   0.39284   1.000
    C314    C    0.96515   0.25948   0.39281   1.000
    C315    C    0.96508   0.75979   0.39288   1.000
    C316    C    0.32291   0.20780   0.22795   1.000
    C317    C    0.32297   0.70795   0.22790   1.000
    C318    C    0.82301   0.20776   0.22700   1.000
    C319    C    0.82295   0.70799   0.22781   1.000
    C320    C    0.04774   0.36348   0.22822   1.000
    C321    C    0.04785   0.86349   0.22815   1.000
    C322    C    0.54761   0.36355   0.22790   1.000
    C323    C    0.54779   0.86350   0.22778   1.000
    C324    C    0.07275   0.28614   0.45810   1.000
    C325    C    0.07264   0.78640   0.45815   1.000
    C326    C    0.57261   0.28626   0.45811   1.000
    C327    C    0.57268   0.78650   0.45810   1.000
    C328    C    0.46906   0.32715   0.53306   1.000
    C329    C    0.46916   0.82742   0.53306   1.000
    C330    C    0.96933   0.32720   0.53299   1.000
    C331    C    0.96930   0.82750   0.53302   1.000
    C332    C    0.28482   0.24018   0.89283   1.000
    C333    C    0.28484   0.74049   0.89280   1.000
    C334    C    0.78501   0.24031   0.89279   1.000
    C335    C    0.78504   0.74054   0.89276   1.000
    C336    C    0.42712   0.29189   0.72700   1.000
    C337    C    0.42716   0.79208   0.72798   1.000
    C338    C    0.92711   0.29205   0.72774   1.000
    C339    C    0.92704   0.79224   0.72768   1.000
    C340    C    0.20222   0.13646   0.72797   1.000
    C341    C    0.20236   0.63653   0.72810   1.000
    C342    C    0.70227   0.13651   0.72780   1.000
    C343    C    0.70242   0.63636   0.72811   1.000
    C344    C    0.17724   0.21360   0.95819   1.000
    C345    C    0.17725   0.71384   0.95816   1.000
    C346    C    0.67748   0.21362   0.95815   1.000
    C347    C    0.67750   0.71388   0.95813   1.000
    C348    C    0.28068   0.17244   0.03302   1.000
    C349    C    0.28074   0.67275   0.03302   1.000
    C350    C    0.78091   0.17255   0.03295   1.000
    C351    C    0.78097   0.67282   0.03297   1.000
    C352    C    0.46504   0.49059   0.89286   1.000
    C353    C    0.46503   0.99065   0.89287   1.000
    C354    C    0.96510   0.49056   0.89286   1.000
    C355    C    0.96503   0.99062   0.89292   1.000
    C356    C    0.32261   0.04222   0.72803   1.000
    C357    C    0.32267   0.54210   0.72800   1.000
    C358    C    0.82270   0.04225   0.72787   1.000
    C359    C    0.82281   0.54211   0.72780   1.000
    C360    C    0.04768   0.38631   0.72880   1.000
    C361    C    0.04759   0.88641   0.72891   1.000
    C362    C    0.54745   0.38619   0.72861   1.000
    C363    C    0.54749   0.88642   0.72864   1.000
    C364    C    0.07268   0.46366   0.95800   1.000
    C365    C    0.07266   0.96379   0.95790   1.000
    C366    C    0.57258   0.46355   0.95799   1.000
    C367    C    0.57262   0.96370   0.95780   1.000
    C368    C    0.46904   0.42270   0.03288   1.000
    C369    C    0.46920   0.92262   0.03271   1.000
    C370    C    0.96926   0.42263   0.03284   1.000
    C371    C    0.96937   0.92259   0.03272   1.000
    C372    C    0.28495   0.00936   0.39295   1.000
    C373    C    0.28496   0.50950   0.39291   1.000
    C374    C    0.78520   0.00937   0.39289   1.000
    C375    C    0.78514   0.50939   0.39280   1.000
    C376    C    0.42738   0.45791   0.22800   1.000
    C377    C    0.42741   0.95778   0.22803   1.000
    C378    C    0.92727   0.45777   0.22780   1.000
    C379    C    0.92740   0.95769   0.22783   1.000
    C380    C    0.20249   0.11352   0.22873   1.000
    C381    C    0.20251   0.61367   0.22877   1.000
    C382    C    0.70254   0.11356   0.22868   1.000
    C383    C    0.70252   0.61377   0.22857   1.000
    C384    C    0.17732   0.03623   0.45780   1.000
    C385    C    0.17734   0.53645   0.45796   1.000
    C386    C    0.67761   0.03633   0.45700   1.000
    C387    C    0.67758   0.53636   0.45790   1.000
    C388    C    0.28065   0.07736   0.53277   1.000
    C389    C    0.28080   0.57738   0.53290   1.000
    C390    C    0.78092   0.07739   0.53269   1.000
    C391    C    0.78101   0.57726   0.53287   1.000
    C392    C    0.03504   0.24024   0.60660   1.000
    C393    C    0.03495   0.74050   0.60669   1.000
    C394    C    0.53492   0.24024   0.60667   1.000
    C395    C    0.53498   0.74048   0.60672   1.000
    C396    C    0.17710   0.29204   0.77170   1.000
    C397    C    0.17704   0.79225   0.77173   1.000
    C398    C    0.67710   0.29206   0.77160   1.000
    C399    C    0.67721   0.79213   0.77140   1.000
    C400    C    0.45230   0.13647   0.77170   1.000
    C401    C    0.45245   0.63647   0.77160   1.000
    C402    C    0.95223   0.13649   0.77133   1.000
    C403    C    0.95232   0.63653   0.77129   1.000
    C404    C    0.42737   0.21349   0.54134   1.000
    C405    C    0.42744   0.71373   0.54139   1.000
    C406    C    0.92747   0.21361   0.54137   1.000
    C407    C    0.92737   0.71385   0.54139   1.000
    C408    C    0.03081   0.17252   0.46649   1.000
    C409    C    0.03077   0.67281   0.46651   1.000
    C410    C    0.53090   0.17258   0.46642   1.000
    C411    C    0.53099   0.67284   0.46647   1.000
    C412    C    0.21502   0.25944   0.10673   1.000
    C413    C    0.21503   0.75970   0.10669   1.000
    C414    C    0.71525   0.25952   0.10672   1.000
    C415    C    0.71526   0.75979   0.10668   1.000
    C416    C    0.07304   0.20775   0.27183   1.000
    C417    C    0.07296   0.70794   0.27179   1.000
    C418    C    0.57290   0.20793   0.27146   1.000
    C419    C    0.57296   0.70807   0.27162   1.000
    C420    C    0.29768   0.36360   0.27134   1.000
    C421    C    0.29780   0.86349   0.27157   1.000
    C422    C    0.79770   0.36347   0.27145   1.000
    C423    C    0.79780   0.86358   0.27148   1.000
    C424    C    0.32257   0.28609   0.04139   1.000
    C425    C    0.32257   0.78638   0.04140   1.000
    C426    C    0.82281   0.28617   0.04132   1.000
    C427    C    0.82283   0.78640   0.04130   1.000
    C428    C    0.21914   0.32717   0.96654   1.000
    C429    C    0.21918   0.82746   0.96655   1.000
    C430    C    0.71930   0.32725   0.96649   1.000
    C431    C    0.71936   0.82752   0.96646   1.000
    O432    O    0.45759   0.90174   0.04890   1.000
    O433    O    0.48461   0.96130   0.01622   1.000
    O434    O    0.95780   0.90170   0.04892   1.000
    O435    O    0.98472   0.96129   0.01624   1.000
    O436    O    0.95768   0.40174   0.04903   1.000
    O437    O    0.98467   0.46131   0.01630   1.000
    O438    O    0.45742   0.40181   0.04903   1.000
    O439    O    0.48453   0.46135   0.01633   1.000
    O440    O    0.79246   0.15166   0.04919   1.000
    O441    O    0.76554   0.21122   0.01635   1.000
    O442    O    0.79252   0.65192   0.04920   1.000
    O443    O    0.76558   0.71151   0.01635   1.000
    O444    O    0.29235   0.65188   0.04926   1.000
    O445    O    0.26532   0.71144   0.01639   1.000
    O446    O    0.29230   0.15158   0.04926   1.000
    O447    O    0.26528   0.21112   0.01640   1.000
    O448    O    0.84458   0.79649   0.05732   1.000
    O449    O    0.78651   0.76830   0.02051   1.000
    O450    O    0.84454   0.29633   0.05734   1.000
    O451    O    0.78649   0.26803   0.02054   1.000
    O452    O    0.34429   0.29629   0.05738   1.000
    O453    O    0.28623   0.26794   0.02059   1.000
    O454    O    0.34432   0.79650   0.05740   1.000
    O455    O    0.28623   0.76825   0.02058   1.000
    O456    O    0.90571   0.54647   0.05756   1.000
    O457    O    0.96376   0.51816   0.02065   1.000
    O458    O    0.40570   0.54659   0.05758   1.000
    O459    O    0.46373   0.51823   0.02066   1.000
    O460    O    0.90568   0.04632   0.05759   1.000
    O461    O    0.96375   0.01810   0.02067   1.000
    O462    O    0.40568   0.04638   0.05763   1.000
    O463    O    0.46373   0.01813   0.02066   1.000
    O464    O    0.43257   0.85641   0.08670   1.000
    O465    O    0.93281   0.85637   0.08672   1.000
    O466    O    0.43242   0.35644   0.08674   1.000
    O467    O    0.93269   0.35638   0.08676   1.000
    O468    O    0.81744   0.10629   0.08700   1.000
    O469    O    0.81749   0.60653   0.08701   1.000
    O470    O    0.31742   0.60655   0.08708   1.000
    O471    O    0.31738   0.10627   0.08710   1.000
    O472    O    0.89286   0.81925   0.09083   1.000
    O473    O    0.89277   0.31920   0.09083   1.000
    O474    O    0.39251   0.31922   0.09084   1.000
    O475    O    0.39261   0.81929   0.09086   1.000
    O476    O    0.85744   0.56933   0.09108   1.000
    O477    O    0.85739   0.06912   0.09109   1.000
    O478    O    0.35742   0.56941   0.09113   1.000
    O479    O    0.35739   0.06915   0.09118   1.000
    O480    O    0.04430   0.01236   0.14055   1.000
    O481    O    0.01756   0.00468   0.05316   1.000
    O482    O    0.54428   0.01238   0.14057   1.000
    O483    O    0.51752   0.00466   0.05316   1.000
    O484    O    0.04424   0.51247   0.14062   1.000
    O485    O    0.01755   0.50471   0.05318   1.000
    O486    O    0.54424   0.51248   0.14066   1.000
    O487    O    0.51751   0.50471   0.05323   1.000
    O488    O    0.70603   0.76280   0.14068   1.000
    O489    O    0.73273   0.75499   0.05320   1.000
    O490    O    0.20587   0.76269   0.14073   1.000
    O491    O    0.23246   0.75491   0.05323   1.000
    O492    O    0.70602   0.26258   0.14071   1.000
    O493    O    0.73271   0.25470   0.05324   1.000
    O494    O    0.20587   0.26249   0.14076   1.000
    O495    O    0.23245   0.25461   0.05326   1.000
    O496    O    0.43152   0.32330   0.14782   1.000
    O497    O    0.93173   0.32324   0.14785   1.000
    O498    O    0.93183   0.82327   0.14785   1.000
    O499    O    0.43165   0.82331   0.14781   1.000
    O500    O    0.81846   0.57336   0.14808   1.000
    O501    O    0.81844   0.07315   0.14809   1.000
    O502    O    0.31847   0.57341   0.14817   1.000
    O503    O    0.31843   0.07316   0.14819   1.000
    O504    O    0.56687   0.01912   0.21418   1.000
    O505    O    0.06682   0.01905   0.21421   1.000
    O506    O    0.56684   0.51926   0.21427   1.000
    O507    O    0.06676   0.51923   0.21430   1.000
    O508    O    0.68346   0.76945   0.21434   1.000
    O509    O    0.68342   0.26930   0.21434   1.000
    O510    O    0.18341   0.76932   0.21445   1.000
    O511    O    0.18342   0.26920   0.21447   1.000
    O512    O    0.47231   0.82872   0.19867   1.000
    O513    O    0.43212   0.79384   0.21639   1.000
    O514    O    0.47216   0.32872   0.19872   1.000
    O515    O    0.43201   0.29379   0.21639   1.000
    O516    O    0.97213   0.82870   0.19881   1.000
    O517    O    0.93218   0.79383   0.21643   1.000
    O518    O    0.97209   0.32866   0.19885   1.000
    O519    O    0.93214   0.29373   0.21643   1.000
    O520    O    0.77789   0.57881   0.19907   1.000
    O521    O    0.81806   0.54380   0.21656   1.000
    O522    O    0.77789   0.07860   0.19912   1.000
    O523    O    0.81810   0.04361   0.21657   1.000
    O524    O    0.27787   0.07860   0.19920   1.000
    O525    O    0.31809   0.04364   0.21671   1.000
    O526    O    0.27791   0.57882   0.19919   1.000
    O527    O    0.31812   0.54386   0.21669   1.000
    O528    O    0.52413   0.85314   0.21890   1.000
    O529    O    0.52396   0.35318   0.21900   1.000
    O530    O    0.02392   0.85313   0.21919   1.000
    O531    O    0.02387   0.35311   0.21925   1.000
    O532    O    0.72614   0.60334   0.21956   1.000
    O533    O    0.72615   0.10314   0.21965   1.000
    O534    O    0.22614   0.60328   0.21972   1.000
    O535    O    0.22612   0.10311   0.21971   1.000
    O536    O    0.84489   0.22289   0.23000   1.000
    O537    O    0.90538   0.47290   0.23042   1.000
    O538    O    0.84484   0.72310   0.23042   1.000
    O539    O    0.90549   0.97280   0.23044   1.000
    O540    O    0.34485   0.72306   0.23050   1.000
    O541    O    0.34479   0.22292   0.23052   1.000
    O542    O    0.40548   0.47303   0.23062   1.000
    O543    O    0.40550   0.97287   0.23065   1.000
    O544    O    0.89343   0.25545   0.23923   1.000
    O545    O    0.89341   0.75562   0.23925   1.000
    O546    O    0.85680   0.50546   0.23929   1.000
    O547    O    0.85688   0.00532   0.23930   1.000
    O548    O    0.39333   0.25549   0.23926   1.000
    O549    O    0.39341   0.75560   0.23928   1.000
    O550    O    0.35688   0.50556   0.23946   1.000
    O551    O    0.35687   0.00537   0.23950   1.000
    O552    O    0.43334   0.26927   0.28510   1.000
    O553    O    0.93342   0.26922   0.28512   1.000
    O554    O    0.43342   0.76940   0.28513   1.000
    O555    O    0.93339   0.76939   0.28515   1.000
    O556    O    0.81682   0.51920   0.28520   1.000
    O557    O    0.81691   0.01906   0.28521   1.000
    O558    O    0.31684   0.51928   0.28532   1.000
    O559    O    0.31684   0.01909   0.28537   1.000
    O560    O    0.60691   0.00541   0.26002   1.000
    O561    O    0.56816   0.04371   0.28280   1.000
    O562    O    0.10681   0.00532   0.26013   1.000
    O563    O    0.06802   0.04361   0.28282   1.000
    O564    O    0.60689   0.50556   0.26010   1.000
    O565    O    0.56816   0.54388   0.28289   1.000
    O566    O    0.10676   0.50552   0.26021   1.000
    O567    O    0.06799   0.54383   0.28292   1.000
    O568    O    0.64337   0.25556   0.26015   1.000
    O569    O    0.68207   0.29381   0.28304   1.000
    O570    O    0.64343   0.75568   0.26019   1.000
    O571    O    0.68216   0.79391   0.28306   1.000
    O572    O    0.14343   0.75555   0.26034   1.000
    O573    O    0.18216   0.79378   0.28316   1.000
    O574    O    0.14346   0.25543   0.26038   1.000
    O575    O    0.18215   0.29374   0.28315   1.000
    O576    O    0.65553   0.97289   0.26882   1.000
    O577    O    0.65550   0.47303   0.26889   1.000
    O578    O    0.59479   0.22304   0.26888   1.000
    O579    O    0.59485   0.72317   0.26900   1.000
    O580    O    0.15543   0.97282   0.26902   1.000
    O581    O    0.15536   0.47298   0.26909   1.000
    O582    O    0.09485   0.72304   0.26917   1.000
    O583    O    0.09492   0.22287   0.26922   1.000
    O584    O    0.97609   0.10316   0.27964   1.000
    O585    O    0.97602   0.60329   0.27982   1.000
    O586    O    0.47619   0.10318   0.27985   1.000
    O587    O    0.47623   0.60338   0.27997   1.000
    O588    O    0.27405   0.35320   0.28031   1.000
    O589    O    0.77405   0.35312   0.28039   1.000
    O590    O    0.77416   0.85321   0.28041   1.000
    O591    O    0.27415   0.85312   0.28049   1.000
    O592    O    0.02781   0.07861   0.30024   1.000
    O593    O    0.52796   0.07868   0.30031   1.000
    O594    O    0.02779   0.57881   0.30036   1.000
    O595    O    0.52800   0.57887   0.30042   1.000
    O596    O    0.22230   0.32871   0.30071   1.000
    O597    O    0.72224   0.32871   0.30071   1.000
    O598    O    0.72236   0.82878   0.30073   1.000
    O599    O    0.22236   0.82867   0.30081   1.000
    O600    O    0.06833   0.07314   0.35130   1.000
    O601    O    0.56856   0.07326   0.35124   1.000
    O602    O    0.06835   0.57340   0.35138   1.000
    O603    O    0.56860   0.57345   0.35138   1.000
    O604    O    0.68161   0.32331   0.35160   1.000
    O605    O    0.68174   0.82337   0.35164   1.000
    O606    O    0.18170   0.32327   0.35165   1.000
    O607    O    0.18174   0.82325   0.35170   1.000
    O608    O    0.45588   0.26256   0.35877   1.000
    O609    O    0.95594   0.26252   0.35880   1.000
    O610    O    0.45594   0.76276   0.35882   1.000
    O611    O    0.95588   0.76277   0.35886   1.000
    O612    O    0.79433   0.51244   0.35883   1.000
    O613    O    0.79441   0.01238   0.35889   1.000
    O614    O    0.29423   0.51254   0.35894   1.000
    O615    O    0.29423   0.01238   0.35898   1.000
    O616    O    0.60756   0.06925   0.40821   1.000
    O617    O    0.56757   0.10639   0.41232   1.000
    O618    O    0.10728   0.06912   0.40831   1.000
    O619    O    0.06732   0.10626   0.41239   1.000
    O620    O    0.60759   0.56941   0.40837   1.000
    O621    O    0.56763   0.60660   0.41244   1.000
    O622    O    0.10731   0.56940   0.40840   1.000
    O623    O    0.06734   0.60656   0.41245   1.000
    O624    O    0.64260   0.31927   0.40860   1.000
    O625    O    0.68256   0.35642   0.41269   1.000
    O626    O    0.64273   0.81936   0.40864   1.000
    O627    O    0.68271   0.85646   0.41275   1.000
    O628    O    0.14272   0.31921   0.40864   1.000
    O629    O    0.18260   0.35642   0.41273   1.000
    O630    O    0.14271   0.81924   0.40867   1.000
    O631    O    0.18265   0.85636   0.41280   1.000
    O632    O    0.48253   0.25468   0.44626   1.000
    O633    O    0.76766   0.50466   0.44627   1.000
    O634    O    0.98263   0.25466   0.44626   1.000
    O635    O    0.48260   0.75495   0.44631   1.000
    O636    O    0.98255   0.75498   0.44633   1.000
    O637    O    0.76770   0.00470   0.44629   1.000
    O638    O    0.26743   0.50478   0.44634   1.000
    O639    O    0.26741   0.00467   0.44632   1.000
    O640    O    0.65585   0.04645   0.44136   1.000
    O641    O    0.15556   0.04633   0.44180   1.000
    O642    O    0.65585   0.54653   0.44188   1.000
    O643    O    0.15560   0.54658   0.44193   1.000
    O644    O    0.59434   0.29642   0.44210   1.000
    O645    O    0.59443   0.79660   0.44211   1.000
    O646    O    0.09447   0.29631   0.44211   1.000
    O647    O    0.09440   0.79649   0.44214   1.000
    O648    O    0.54251   0.15171   0.45018   1.000
    O649    O    0.04236   0.15162   0.45023   1.000
    O650    O    0.54259   0.65196   0.45023   1.000
    O651    O    0.04234   0.65193   0.45026   1.000
    O652    O    0.70762   0.40175   0.45045   1.000
    O653    O    0.20752   0.40182   0.45045   1.000
    O654    O    0.70777   0.90178   0.45051   1.000
    O655    O    0.20760   0.90172   0.45059   1.000
    O656    O    0.71390   0.01818   0.47835   1.000
    O657    O    0.21359   0.01811   0.47875   1.000
    O658    O    0.71388   0.51815   0.47882   1.000
    O659    O    0.21362   0.51825   0.47886   1.000
    O660    O    0.53637   0.76833   0.47894   1.000
    O661    O    0.03643   0.26799   0.47891   1.000
    O662    O    0.53630   0.26805   0.47892   1.000
    O663    O    0.03633   0.76829   0.47896   1.000
    O664    O    0.51544   0.21121   0.48307   1.000
    O665    O    0.51552   0.71149   0.48312   1.000
    O666    O    0.01546   0.21118   0.48310   1.000
    O667    O    0.01539   0.71149   0.48314   1.000
    O668    O    0.23449   0.46139   0.48318   1.000
    O669    O    0.73472   0.46128   0.48318   1.000
    O670    O    0.73480   0.96134   0.48319   1.000
    O671    O    0.23452   0.96130   0.48324   1.000
    O672    O    0.76556   0.03871   0.51619   1.000
    O673    O    0.78647   0.98189   0.52063   1.000
    O674    O    0.73266   0.99533   0.55310   1.000
    O675    O    0.26526   0.03867   0.51623   1.000
    O676    O    0.28616   0.98184   0.52068   1.000
    O677    O    0.23236   0.99530   0.55313   1.000
    O678    O    0.98472   0.28852   0.51636   1.000
    O679    O    0.96379   0.23172   0.52054   1.000
    O680    O    0.01758   0.24504   0.55316   1.000
    O681    O    0.48452   0.28850   0.51639   1.000
    O682    O    0.46368   0.23167   0.52053   1.000
    O683    O    0.51745   0.24504   0.55320   1.000
    O684    O    0.76560   0.53860   0.51631   1.000
    O685    O    0.78646   0.48173   0.52065   1.000
    O686    O    0.73266   0.49522   0.55318   1.000
    O687    O    0.26534   0.53872   0.51633   1.000
    O688    O    0.28619   0.48185   0.52068   1.000
    O689    O    0.23240   0.49533   0.55319   1.000
    O690    O    0.98466   0.78883   0.51640   1.000
    O691    O    0.96369   0.73201   0.52058   1.000
    O692    O    0.01749   0.74533   0.55323   1.000
    O693    O    0.48461   0.78878   0.51642   1.000
    O694    O    0.46375   0.73194   0.52058   1.000
    O695    O    0.51752   0.74532   0.55325   1.000
    O696    O    0.79250   0.09828   0.54888   1.000
    O697    O    0.29228   0.09824   0.54895   1.000
    O698    O    0.79258   0.59816   0.54903   1.000
    O699    O    0.29243   0.59825   0.54907   1.000
    O700    O    0.95776   0.34808   0.54924   1.000
    O701    O    0.95773   0.84838   0.54928   1.000
    O702    O    0.45755   0.84829   0.54929   1.000
    O703    O    0.45746   0.34803   0.54928   1.000
    O704    O    0.40562   0.20339   0.55736   1.000
    O705    O    0.90571   0.20351   0.55738   1.000
    O706    O    0.90564   0.70368   0.55738   1.000
    O707    O    0.40570   0.70358   0.55740   1.000
    O708    O    0.84448   0.45340   0.55758   1.000
    O709    O    0.84450   0.95366   0.55762   1.000
    O710    O    0.34422   0.45347   0.55763   1.000
    O711    O    0.34421   0.95357   0.55770   1.000
    O712    O    0.81746   0.14363   0.58664   1.000
    O713    O    0.31733   0.14355   0.58673   1.000
    O714    O    0.81752   0.64356   0.58677   1.000
    O715    O    0.31749   0.64358   0.58682   1.000
    O716    O    0.93274   0.39343   0.58705   1.000
    O717    O    0.43243   0.39339   0.58708   1.000
    O718    O    0.43250   0.89362   0.58711   1.000
    O719    O    0.93274   0.89373   0.58711   1.000
    O720    O    0.85740   0.68078   0.59085   1.000
    O721    O    0.35732   0.18064   0.59085   1.000
    O722    O    0.85740   0.18075   0.59079   1.000
    O723    O    0.35744   0.68074   0.59090   1.000
    O724    O    0.89277   0.43059   0.59111   1.000
    O725    O    0.39247   0.43059   0.59117   1.000
    O726    O    0.89278   0.93088   0.59118   1.000
    O727    O    0.39251   0.93076   0.59121   1.000
    O728    O    0.70585   0.98761   0.64047   1.000
    O729    O    0.20565   0.98763   0.64057   1.000
    O730    O    0.04422   0.23725   0.64063   1.000
    O731    O    0.70585   0.48746   0.64059   1.000
    O732    O    0.20573   0.48756   0.64063   1.000
    O733    O    0.54412   0.23723   0.64068   1.000
    O734    O    0.04415   0.73747   0.64070   1.000
    O735    O    0.54418   0.73743   0.64073   1.000
    O736    O    0.81836   0.17674   0.64774   1.000
    O737    O    0.31830   0.17664   0.64785   1.000
    O738    O    0.81841   0.67671   0.64784   1.000
    O739    O    0.31845   0.67670   0.64791   1.000
    O740    O    0.93173   0.42658   0.64813   1.000
    O741    O    0.43146   0.42654   0.64816   1.000
    O742    O    0.93172   0.92685   0.64820   1.000
    O743    O    0.43151   0.92675   0.64818   1.000
    O744    O    0.68324   0.98089   0.71407   1.000
    O745    O    0.68323   0.48071   0.71420   1.000
    O746    O    0.18317   0.98095   0.71424   1.000
    O747    O    0.18326   0.48080   0.71432   1.000
    O748    O    0.06668   0.23063   0.71436   1.000
    O749    O    0.56666   0.23060   0.71437   1.000
    O750    O    0.06665   0.73078   0.71439   1.000
    O751    O    0.56673   0.73071   0.71439   1.000
    O752    O    0.77772   0.17133   0.69865   1.000
    O753    O    0.81791   0.20622   0.71632   1.000
    O754    O    0.77780   0.67127   0.69877   1.000
    O755    O    0.81794   0.70624   0.71635   1.000
    O756    O    0.27768   0.17123   0.69874   1.000
    O757    O    0.31789   0.20609   0.71643   1.000
    O758    O    0.27782   0.67130   0.69882   1.000
    O759    O    0.31799   0.70620   0.71647   1.000
    O760    O    0.97207   0.42117   0.69916   1.000
    O761    O    0.93208   0.45615   0.71661   1.000
    O762    O    0.47206   0.42112   0.69912   1.000
    O763    O    0.43190   0.45612   0.71664   1.000
    O764    O    0.47210   0.92133   0.69915   1.000
    O765    O    0.43190   0.95631   0.71666   1.000
    O766    O    0.97206   0.92139   0.69925   1.000
    O767    O    0.93204   0.95638   0.71666   1.000
    O768    O    0.72592   0.14689   0.71891   1.000
    O769    O    0.22587   0.14682   0.71904   1.000
    O770    O    0.72604   0.64677   0.71915   1.000
    O771    O    0.22601   0.64688   0.71915   1.000
    O772    O    0.52383   0.39660   0.71960   1.000
    O773    O    0.52387   0.89683   0.71963   1.000
    O774    O    0.02384   0.39670   0.71974   1.000
    O775    O    0.02379   0.89684   0.71985   1.000
    O776    O    0.40522   0.27680   0.73006   1.000
    O777    O    0.90516   0.77712   0.73029   1.000
    O778    O    0.90522   0.27696   0.73035   1.000
    O779    O    0.84472   0.52700   0.73044   1.000
    O780    O    0.84462   0.02716   0.73050   1.000
    O781    O    0.40527   0.77697   0.73057   1.000
    O782    O    0.34458   0.52699   0.73060   1.000
    O783    O    0.34452   0.02712   0.73062   1.000
    O784    O    0.85662   0.74455   0.73912   1.000
    O785    O    0.85664   0.24445   0.73917   1.000
    O786    O    0.89332   0.49446   0.73933   1.000
    O787    O    0.35663   0.24430   0.73930   1.000
    O788    O    0.89324   0.99466   0.73936   1.000
    O789    O    0.35670   0.74445   0.73934   1.000
    O790    O    0.39318   0.49445   0.73941   1.000
    O791    O    0.39314   0.99461   0.73943   1.000
    O792    O    0.81665   0.73078   0.78502   1.000
    O793    O    0.81665   0.23067   0.78504   1.000
    O794    O    0.31660   0.23054   0.78515   1.000
    O795    O    0.31665   0.73072   0.78516   1.000
    O796    O    0.93332   0.48075   0.78523   1.000
    O797    O    0.93325   0.98094   0.78527   1.000
    O798    O    0.43322   0.48074   0.78525   1.000
    O799    O    0.43319   0.98090   0.78527   1.000
    O800    O    0.64321   0.99461   0.75994   1.000
    O801    O    0.68198   0.95633   0.78272   1.000
    O802    O    0.64318   0.49443   0.76004   1.000
    O803    O    0.68194   0.45614   0.78284   1.000
    O804    O    0.14319   0.99469   0.76016   1.000
    O805    O    0.18198   0.95640   0.78287   1.000
    O806    O    0.14329   0.49454   0.76024   1.000
    O807    O    0.18203   0.45621   0.78295   1.000
    O808    O    0.60666   0.24440   0.76022   1.000
    O809    O    0.56796   0.20615   0.78311   1.000
    O810    O    0.10665   0.24441   0.76028   1.000
    O811    O    0.06788   0.20618   0.78308   1.000
    O812    O    0.60676   0.74447   0.76021   1.000
    O813    O    0.56807   0.70620   0.78310   1.000
    O814    O    0.10663   0.74456   0.76029   1.000
    O815    O    0.06792   0.70627   0.78308   1.000
    O816    O    0.59460   0.02713   0.76881   1.000
    O817    O    0.59457   0.52696   0.76882   1.000
    O818    O    0.65532   0.77701   0.76888   1.000
    O819    O    0.65522   0.27694   0.76900   1.000
    O820    O    0.09458   0.02721   0.76903   1.000
    O821    O    0.09471   0.52710   0.76911   1.000
    O822    O    0.15521   0.27693   0.76910   1.000
    O823    O    0.15517   0.77712   0.76912   1.000
    O824    O    0.27393   0.89687   0.77977   1.000
    O825    O    0.77395   0.89685   0.77978   1.000
    O826    O    0.27396   0.39666   0.77989   1.000
    O827    O    0.77392   0.39672   0.77990   1.000
    O828    O    0.97597   0.64689   0.78025   1.000
    O829    O    0.97587   0.14686   0.78028   1.000
    O830    O    0.47610   0.64684   0.78050   1.000
    O831    O    0.47595   0.14684   0.78058   1.000
    O832    O    0.72219   0.92137   0.80026   1.000
    O833    O    0.22220   0.92141   0.80033   1.000
    O834    O    0.22222   0.42120   0.80041   1.000
    O835    O    0.72214   0.42119   0.80038   1.000
    O836    O    0.02774   0.67134   0.80066   1.000
    O837    O    0.02766   0.17131   0.80067   1.000
    O838    O    0.52790   0.67128   0.80078   1.000
    O839    O    0.52777   0.17127   0.80082   1.000
    O840    O    0.68163   0.92681   0.85126   1.000
    O841    O    0.18166   0.92687   0.85132   1.000
    O842    O    0.68157   0.42660   0.85136   1.000
    O843    O    0.18165   0.42664   0.85143   1.000
    O844    O    0.06833   0.67677   0.85162   1.000
    O845    O    0.06824   0.17673   0.85164   1.000
    O846    O    0.56855   0.67669   0.85166   1.000
    O847    O    0.56842   0.17668   0.85168   1.000
    O848    O    0.79420   0.73749   0.85873   1.000
    O849    O    0.79417   0.23731   0.85875   1.000
    O850    O    0.29406   0.73744   0.85880   1.000
    O851    O    0.29405   0.23718   0.85882   1.000
    O852    O    0.95587   0.48752   0.85887   1.000
    O853    O    0.45580   0.48753   0.85887   1.000
    O854    O    0.45578   0.98762   0.85889   1.000
    O855    O    0.95579   0.98763   0.85893   1.000
    O856    O    0.64267   0.93082   0.90828   1.000
    O857    O    0.68268   0.89370   0.91238   1.000
    O858    O    0.14271   0.93089   0.90833   1.000
    O859    O    0.18267   0.89373   0.91242   1.000
    O860    O    0.64261   0.43061   0.90839   1.000
    O861    O    0.68261   0.39346   0.91245   1.000
    O862    O    0.14269   0.43067   0.90844   1.000
    O863    O    0.18263   0.39347   0.91250   1.000
    O864    O    0.10729   0.68082   0.90865   1.000
    O865    O    0.06738   0.64363   0.91273   1.000
    O866    O    0.60755   0.68076   0.90865   1.000
    O867    O    0.56764   0.64356   0.91275   1.000
    O868    O    0.10721   0.18075   0.90866   1.000
    O869    O    0.06726   0.14363   0.91277   1.000
    O870    O    0.60745   0.18071   0.90865   1.000
    O871    O    0.56749   0.14358   0.91279   1.000
    O872    O    0.76762   0.74537   0.94624   1.000
    O873    O    0.76759   0.24510   0.94627   1.000
    O874    O    0.26737   0.74531   0.94628   1.000
    O875    O    0.26735   0.24498   0.94631   1.000
    O876    O    0.98259   0.49528   0.94631   1.000
    O877    O    0.48253   0.49530   0.94632   1.000
    O878    O    0.48253   0.99532   0.94630   1.000
    O879    O    0.98255   0.99531   0.94634   1.000
    O880    O    0.59437   0.95360   0.94179   1.000
    O881    O    0.09442   0.95368   0.94188   1.000
    O882    O    0.59433   0.45342   0.94195   1.000
    O883    O    0.09442   0.45352   0.94197   1.000
    O884    O    0.65573   0.20350   0.94213   1.000
    O885    O    0.65578   0.70369   0.94213   1.000
    O886    O    0.15549   0.20351   0.94216   1.000
    O887    O    0.15553   0.70368   0.94215   1.000
    O888    O    0.70775   0.84839   0.95022   1.000
    O889    O    0.70769   0.34813   0.95026   1.000
    O890    O    0.20763   0.84836   0.95029   1.000
    O891    O    0.20759   0.34808   0.95030   1.000
    O892    O    0.04242   0.59825   0.95049   1.000
    O893    O    0.54262   0.59820   0.95050   1.000
    O894    O    0.04229   0.09829   0.95056   1.000
    O895    O    0.54247   0.09824   0.95056   1.000
    O896    O    0.53632   0.98184   0.97877   1.000
    O897    O    0.03636   0.98189   0.97883   1.000
    O898    O    0.53630   0.48178   0.97888   1.000
    O899    O    0.03638   0.48182   0.97888   1.000
    O900    O    0.71385   0.73204   0.97893   1.000
    O901    O    0.71382   0.23175   0.97895   1.000
    O902    O    0.21358   0.73199   0.97896   1.000
    O903    O    0.21356   0.23169   0.97899   1.000
    O904    O    0.73478   0.78886   0.98309   1.000
    O905    O    0.73473   0.28857   0.98312   1.000
    O906    O    0.23451   0.28848   0.98316   1.000
    O907    O    0.23454   0.78880   0.98316   1.000
    O908    O    0.51551   0.53866   0.98322   1.000
    O909    O    0.01546   0.53867   0.98322   1.000
    O910    O    0.51544   0.03867   0.98324   1.000
    O911    O    0.01539   0.03869   0.98326   1.000
loop_
    _geom_bond_atom_site_label_1
    _geom_bond_atom_site_label_2
    _geom_bond_distance
    _geom_bond_site_symmetry_2
    _ccdc_geom_bond_type
    C369   O432      0.58463      .   S
    C173   O432      0.58463      .   S
    C369   O433      0.95121      .   S
    C2     O433      0.95121  1_556   S
    C371   O434      0.58460      .   S
    C175   O434      0.58460      .   S
    C371   O435      0.95096      .   S
    C0     O435      0.95096  1_456   S
    C370   O436      0.58463      .   S
    C174   O436      0.58463      .   S
    C370   O437      0.95130      .   S
    C1     O437      0.95130  1_456   S
    C368   O438      0.58463      .   S
    C172   O438      0.58463      .   S
    C368   O439      0.95149      .   S
    C3     O439      0.95149  1_556   S
    C350   O440      0.58457      .   S
    C142   O440      0.58457      .   S
    C350   O441      0.95060      .   S
    C14    O441      0.95060  1_556   S
    C351   O442      0.58464      .   S
    C143   O442      0.58464      .   S
    C351   O443      0.95125      .   S
    C15    O443      0.95125  1_556   S
    C349   O444      0.58464      .   S
    C141   O444      0.58464      .   S
    C349   O445      0.95159      .   S
    C13    O445      0.95159  1_556   S
    C348   O446      0.58460      .   S
    C140   O446      0.58460      .   S
    C348   O447      0.95104      .   S
    C12    O447      0.95104  1_556   S
    C427   O448      0.58512      .   S
    C267   O448      0.58512      .   S
    C427   O449      0.95025      .   S
    C15    O449      0.95025  1_556   S
    C426   O450      0.58517      .   S
    C266   O450      0.58517      .   S
    C426   O451      0.95079      .   S
    C14    O451      0.95079  1_556   S
    C424   O452      0.58515      .   S
    C264   O452      0.58515      .   S
    C424   O453      0.95138      .   S
    C12    O453      0.95138  1_556   S
    C425   O454      0.58513      .   S
    C265   O454      0.58513      .   S
    C425   O455      0.95104      .   S
    C13    O455      0.95104  1_556   S
    C287   O456      0.58514      .   S
    C43    O456      0.58514      .   S
    C287   O457      0.95096      .   S
    C1     O457      0.95096  1_456   S
    C285   O458      0.58513      .   S
    C41    O458      0.58513      .   S
    C285   O459      0.95098      .   S
    C3     O459      0.95098  1_556   S
    C286   O460      0.58505      .   S
    C42    O460      0.58505      .   S
    C286   O461      0.95052      .   S
    C0     O461      0.95052  1_466   S
    C284   O462      0.58511      .   S
    C40    O462      0.58511      .   S
    C284   O463      0.95064      .   S
    C2     O463      0.95064  1_566   S
    C173   O464      0.70282      .   S
    C89    O464      0.70282      .   S
    C175   O465      0.70268      .   S
    C91    O465      0.70268      .   S
    C172   O466      0.70274      .   S
    C88    O466      0.70274      .   S
    C174   O467      0.70258      .   S
    C90    O467      0.70258      .   S
    C142   O468      0.70265      .   S
    C186   O468      0.70265      .   S
    C143   O469      0.70282      .   S
    C187   O469      0.70282      .   S
    C141   O470      0.70283      .   S
    C185   O470      0.70283      .   S
    C140   O471      0.70276      .   S
    C184   O471      0.70276      .   S
    C267   O472      0.70297      .   S
    C91    O472      0.70297      .   S
    C266   O473      0.70285      .   S
    C90    O473      0.70285      .   S
    C264   O474      0.70303      .   S
    C88    O474      0.70303      .   S
    C265   O475      0.70309      .   S
    C89    O475      0.70309      .   S
    C43    O476      0.70308      .   S
    C187   O476      0.70308      .   S
    C42    O477      0.70295      .   S
    C186   O477      0.70295      .   S
    C41    O478      0.70308      .   S
    C185   O478      0.70308      .   S
    C40    O479      0.70304      .   S
    C184   O479      0.70304      .   S
    C272   O480      0.58342      .   S
    C28    O480      0.58342      .   S
    C272   O481      0.94126      .   S
    C0     O481      0.94126  1_566   S
    C274   O482      0.58345      .   S
    C30    O482      0.58345      .   S
    C274   O483      0.94159      .   S
    C2     O483      0.94159  1_566   S
    C273   O484      0.58381      .   S
    C29    O484      0.58381      .   S
    C273   O485      0.94136      .   S
    C1     O485      0.94136  1_556   S
    C275   O486      0.58346      .   S
    C31    O486      0.58346      .   S
    C275   O487      0.94194      .   S
    C3     O487      0.94194  1_556   S
    C415   O488      0.58348      .   S
    C255   O488      0.58348      .   S
    C415   O489      0.94228      .   S
    C15    O489      0.94228  1_556   S
    C413   O490      0.58351      .   S
    C253   O490      0.58351      .   S
    C413   O491      0.94173      .   S
    C13    O491      0.94173  1_556   S
    C414   O492      0.58346      .   S
    C254   O492      0.58346      .   S
    C414   O493      0.94231      .   S
    C14    O493      0.94231  1_556   S
    C412   O494      0.58348      .   S
    C252   O494      0.58348      .   S
    C412   O495      0.94192      .   S
    C12    O495      0.94192  1_556   S
    C88    O496      0.71411      .   S
    C84    O496      0.71411      .   S
    C90    O497      0.71415      .   S
    C86    O497      0.71415      .   S
    C91    O498      0.71368      .   S
    C87    O498      0.71368      .   S
    C89    O499      0.71375      .   S
    C85    O499      0.71375      .   S
    C187   O500      0.71361      .   S
    C183   O500      0.71361      .   S
    C186   O501      0.71351      .   S
    C182   O501      0.71351      .   S
    C185   O502      0.71368      .   S
    C181   O502      0.71368      .   S
    C184   O503      0.71330      .   S
    C180   O503      0.71330      .   S
    C30    O504      0.70237      .   S
    C18    O504      0.70237      .   S
    C28    O505      0.70222      .   S
    C16    O505      0.70222      .   S
    C31    O506      0.70244      .   S
    C19    O506      0.70244      .   S
    C29    O507      0.70236      .   S
    C17    O507      0.70236      .   S
    C255   O508      0.70253      .   S
    C243   O508      0.70253      .   S
    C254   O509      0.70262      .   S
    C242   O509      0.70262      .   S
    C253   O510      0.70240      .   S
    C241   O510      0.70240      .   S
    C252   O511      0.70243      .   S
    C240   O511      0.70243      .   S
    C85    O512      0.71412      .   S
    C101   O512      0.71412      .   S
    C85    O513      0.70297      .   S
    C81    O513      0.70297      .   S
    C84    O514      0.71414      .   S
    C100   O514      0.71414      .   S
    C84    O515      0.70303      .   S
    C80    O515      0.70303      .   S
    C87    O516      0.70885      .   S
    C103   O516      0.70885  1_455   S
    C87    O517      0.70295      .   S
    C83    O517      0.70295      .   S
    C86    O518      0.70981      .   S
    C102   O518      0.70981  1_455   S
    C86    O519      0.70302      .   S
    C82    O519      0.70302      .   S
    C183   O520      0.71411      .   S
    C199   O520      0.71411      .   S
    C183   O521      0.70298      .   S
    C179   O521      0.70298      .   S
    C182   O522      0.71412      .   S
    C198   O522      0.71412      .   S
    C182   O523      0.70294      .   S
    C178   O523      0.70294      .   S
    C180   O524      0.71419      .   S
    C196   O524      0.71419      .   S
    C180   O525      0.70320      .   S
    C176   O525      0.70320      .   S
    C181   O526      0.71411      .   S
    C197   O526      0.71411      .   S
    C181   O527      0.70302      .   S
    C177   O527      0.70302      .   S
    C101   O528      0.58415      .   S
    C323   O528      0.58415      .   S
    C100   O529      0.58415      .   S
    C322   O529      0.58415      .   S
    C103   O530      0.58970      .   S
    C321   O530      0.58970      .   S
    C102   O531      0.58874      .   S
    C320   O531      0.58874      .   S
    C199   O532      0.58419      .   S
    C383   O532      0.58419      .   S
    C198   O533      0.58415      .   S
    C382   O533      0.58415      .   S
    C197   O534      0.58417      .   S
    C381   O534      0.58417      .   S
    C196   O535      0.58418      .   S
    C380   O535      0.58418      .   S
    C318   O536      0.58558      .   S
    C98    O536      0.58558      .   S
    C378   O537      0.58511      .   S
    C194   O537      0.58511      .   S
    C319   O538      0.58509      .   S
    C99    O538      0.58509      .   S
    C379   O539      0.58511      .   S
    C195   O539      0.58511      .   S
    C317   O540      0.58509      .   S
    C97    O540      0.58509      .   S
    C316   O541      0.58509      .   S
    C96    O541      0.58509      .   S
    C376   O542      0.58511      .   S
    C192   O542      0.58511      .   S
    C377   O543      0.58510      .   S
    C193   O543      0.58510      .   S
    C98    O544      0.70620      .   S
    C82    O544      0.70620      .   S
    C99    O545      0.70618      .   S
    C83    O545      0.70618      .   S
    C194   O546      0.70620      .   S
    C179   O546      0.70620      .   S
    C195   O547      0.70618  1_565   S
    C178   O547      0.70618      .   S
    C96    O548      0.70622      .   S
    C80    O548      0.70622      .   S
    C97    O549      0.70619      .   S
    C81    O549      0.70619      .   S
    C192   O550      0.70619      .   S
    C177   O550      0.70619      .   S
    C193   O551      0.70619  1_565   S
    C176   O551      0.70619      .   S
    C80    O552      0.70258      .   S
    C92    O552      0.70258      .   S
    C82    O553      0.70252      .   S
    C94    O553      0.70252      .   S
    C81    O554      0.70253      .   S
    C93    O554      0.70253      .   S
    C83    O555      0.70242      .   S
    C95    O555      0.70242      .   S
    C179   O556      0.70245      .   S
    C191   O556      0.70245      .   S
    C178   O557      0.70232      .   S
    C190   O557      0.70232      .   S
    C177   O558      0.70249      .   S
    C189   O558      0.70249      .   S
    C176   O559      0.70237      .   S
    C188   O559      0.70237      .   S
    C18    O560      0.70620      .   S
    C35    O560      0.70620  1_565   S
    C18    O561      0.70296      .   S
    C22    O561      0.70296      .   S
    C16    O562      0.70619      .   S
    C33    O562      0.70619  1_565   S
    C16    O563      0.70297      .   S
    C20    O563      0.70297      .   S
    C19    O564      0.70620      .   S
    C34    O564      0.70620      .   S
    C19    O565      0.70303      .   S
    C23    O565      0.70303      .   S
    C17    O566      0.70620      .   S
    C32    O566      0.70620      .   S
    C17    O567      0.70298      .   S
    C21    O567      0.70298      .   S
    C242   O568      0.70618      .   S
    C258   O568      0.70618      .   S
    C242   O569      0.70303      .   S
    C246   O569      0.70303      .   S
    C243   O570      0.70617      .   S
    C259   O570      0.70617      .   S
    C243   O571      0.70298      .   S
    C247   O571      0.70298      .   S
    C241   O572      0.70617      .   S
    C257   O572      0.70617      .   S
    C241   O573      0.70293      .   S
    C245   O573      0.70293      .   S
    C240   O574      0.70621      .   S
    C256   O574      0.70621      .   S
    C240   O575      0.70301      .   S
    C244   O575      0.70301      .   S
    C35    O576      0.58510      .   S
    C279   O576      0.58510      .   S
    C34    O577      0.58511      .   S
    C278   O577      0.58511      .   S
    C258   O578      0.58509      .   S
    C418   O578      0.58509      .   S
    C259   O579      0.58510      .   S
    C419   O579      0.58510      .   S
    C33    O580      0.58509      .   S
    C277   O580      0.58509      .   S
    C32    O581      0.58511      .   S
    C276   O581      0.58511      .   S
    C257   O582      0.58509      .   S
    C417   O582      0.58509      .   S
    C256   O583      0.58510      .   S
    C416   O583      0.58510      .   S
    C282   O584      0.58431      .   S
    C36    O584      0.58431      .   S
    C283   O585      0.58433      .   S
    C37    O585      0.58433      .   S
    C280   O586      0.58417      .   S
    C38    O586      0.58417      .   S
    C281   O587      0.58416      .   S
    C39    O587      0.58416      .   S
    C420   O588      0.58417      .   S
    C260   O588      0.58417      .   S
    C422   O589      0.58417      .   S
    C262   O589      0.58417      .   S
    C423   O590      0.58417      .   S
    C263   O590      0.58417      .   S
    C421   O591      0.58416      .   S
    C261   O591      0.58416      .   S
    C36    O592      0.71412  1_655   S
    C20    O592      0.71412      .   S
    C38    O593      0.71414      .   S
    C22    O593      0.71414      .   S
    C37    O594      0.71411  1_655   S
    C21    O594      0.71411      .   S
    C39    O595      0.71413      .   S
    C23    O595      0.71413      .   S
    C260   O596      0.71409      .   S
    C244   O596      0.71409      .   S
    C262   O597      0.71414      .   S
    C246   O597      0.71414      .   S
    C263   O598      0.71410      .   S
    C247   O598      0.71410      .   S
    C261   O599      0.71408      .   S
    C245   O599      0.71408      .   S
    C20    O600      0.71342      .   S
    C24    O600      0.71342      .   S
    C22    O601      0.71306      .   S
    C26    O601      0.71306      .   S
    C21    O602      0.71358      .   S
    C25    O602      0.71358      .   S
    C23    O603      0.71373      .   S
    C27    O603      0.71373      .   S
    C246   O604      0.71365      .   S
    C250   O604      0.71365      .   S
    C247   O605      0.71376      .   S
    C251   O605      0.71376      .   S
    C244   O606      0.71371      .   S
    C248   O606      0.71371      .   S
    C245   O607      0.71364      .   S
    C249   O607      0.71364      .   S
    C92    O608      0.58348      .   S
    C312   O608      0.58348      .   S
    C94    O609      0.58350      .   S
    C314   O609      0.58350      .   S
    C93    O610      0.58351      .   S
    C313   O610      0.58351      .   S
    C95    O611      0.58347      .   S
    C315   O611      0.58347      .   S
    C191   O612      0.58280      .   S
    C375   O612      0.58280      .   S
    C190   O613      0.58336      .   S
    C374   O613      0.58336      .   S
    C189   O614      0.58345      .   S
    C373   O614      0.58345      .   S
    C188   O615      0.58337      .   S
    C372   O615      0.58337      .   S
    C26    O616      0.70328      .   S
    C202   O616      0.70328      .   S
    C26    O617      0.70305      .   S
    C238   O617      0.70305      .   S
    C24    O618      0.70293      .   S
    C200   O618      0.70293      .   S
    C24    O619      0.70260      .   S
    C236   O619      0.70260      .   S
    C27    O620      0.70311      .   S
    C203   O620      0.70311      .   S
    C27    O621      0.70280      .   S
    C239   O621      0.70280      .   S
    C25    O622      0.70306      .   S
    C201   O622      0.70306      .   S
    C25    O623      0.70278      .   S
    C237   O623      0.70278      .   S
    C250   O624      0.70322      .   S
    C106   O624      0.70322      .   S
    C250   O625      0.70296      .   S
    C78    O625      0.70296      .   S
    C251   O626      0.70308      .   S
    C107   O626      0.70308      .   S
    C251   O627      0.70280      .   S
    C79    O627      0.70280      .   S
    C248   O628      0.70308      .   S
    C104   O628      0.70308      .   S
    C248   O629      0.70281      .   S
    C76    O629      0.70281      .   S
    C249   O630      0.70303      .   S
    C105   O630      0.70303      .   S
    C249   O631      0.70271      .   S
    C77    O631      0.70271      .   S
    C312   O632      0.94222      .   S
    C10    O632      0.94222      .   S
    C375   O633      0.94224      .   S
    C7     O633      0.94224      .   S
    C314   O634      0.94215      .   S
    C8     O634      0.94215  1_455   S
    C313   O635      0.94211      .   S
    C11    O635      0.94211      .   S
    C315   O636      0.94196      .   S
    C9     O636      0.94196  1_455   S
    C374   O637      0.94130      .   S
    C6     O637      0.94130      .   S
    C373   O638      0.94208      .   S
    C5     O638      0.94208      .   S
    C372   O639      0.94128      .   S
    C4     O639      0.94128  1_565   S
    C202   O640      0.58236      .   S
    C386   O640      0.58236      .   S
    C200   O641      0.58477      .   S
    C384   O641      0.58477      .   S
    C203   O642      0.58498      .   S
    C387   O642      0.58498      .   S
    C201   O643      0.58510      .   S
    C385   O643      0.58510      .   S
    C106   O644      0.58515      .   S
    C326   O644      0.58515      .   S
    C107   O645      0.58493      .   S
    C327   O645      0.58493      .   S
    C104   O646      0.58512      .   S
    C324   O646      0.58512      .   S
    C105   O647      0.58511      .   S
    C325   O647      0.58511      .   S
    C238   O648      0.58460      .   S
    C410   O648      0.58460      .   S
    C236   O649      0.58457      .   S
    C408   O649      0.58457      .   S
    C239   O650      0.58470      .   S
    C411   O650      0.58470      .   S
    C237   O651      0.58462      .   S
    C409   O651      0.58462      .   S
    C78    O652      0.58463      .   S
    C310   O652      0.58463      .   S
    C76    O653      0.58446      .   S
    C308   O653      0.58446      .   S
    C79    O654      0.58463      .   S
    C311   O654      0.58463      .   S
    C77    O655      0.58459      .   S
    C309   O655      0.58459      .   S
    C386   O656      0.95310      .   S
    C6     O656      0.95310      .   S
    C384   O657      0.95015      .   S
    C4     O657      0.95015  1_565   S
    C387   O658      0.95135      .   S
    C7     O658      0.95135      .   S
    C385   O659      0.95060      .   S
    C5     O659      0.95060      .   S
    C327   O660      0.95116      .   S
    C11    O660      0.95116      .   S
    C324   O661      0.95084      .   S
    C8     O661      0.95084      .   S
    C326   O662      0.95129      .   S
    C10    O662      0.95129      .   S
    C325   O663      0.95048      .   S
    C9     O663      0.95048      .   S
    C410   O664      0.95088      .   S
    C10    O664      0.95088      .   S
    C411   O665      0.95146      .   S
    C11    O665      0.95146      .   S
    C408   O666      0.95045      .   S
    C8     O666      0.95045      .   S
    C409   O667      0.95115      .   S
    C9     O667      0.95115      .   S
    C308   O668      0.95120      .   S
    C5     O668      0.95120      .   S
    C310   O669      0.95153      .   S
    C7     O669      0.95153      .   S
    C311   O670      0.95131      .   S
    C6     O670      0.95131  1_545   S
    C309   O671      0.95063      .   S
    C4     O671      0.95063      .   S
    C6     O672      0.95088      .   S
    C390   O672      0.95088      .   S
    C6     O673      0.95017  1_545   S
    C307   O673      0.95017      .   S
    C6     O674      0.94160  1_545   S
    C295   O674      0.94160      .   S
    C4     O675      0.95146  1_565   S
    C388   O675      0.95146      .   S
    C4     O676      0.95101      .   S
    C305   O676      0.95101      .   S
    C4     O677      0.94171      .   S
    C293   O677      0.94171      .   S
    C8     O678      0.95124  1_455   S
    C330   O678      0.95124      .   S
    C8     O679      0.95074  1_455   S
    C406   O679      0.95074      .   S
    C8     O680      0.94172      .   S
    C392   O680      0.94172      .   S
    C10    O681      0.95144      .   S
    C328   O681      0.95144      .   S
    C10    O682      0.95088      .   S
    C404   O682      0.95088      .   S
    C10    O683      0.94216      .   S
    C394   O683      0.94216      .   S
    C7     O684      0.95111      .   S
    C391   O684      0.95111      .   S
    C7     O685      0.95067      .   S
    C306   O685      0.95067      .   S
    C7     O686      0.94207      .   S
    C294   O686      0.94207      .   S
    C5     O687      0.95150      .   S
    C389   O687      0.95150      .   S
    C5     O688      0.95121      .   S
    C304   O688      0.95121      .   S
    C5     O689      0.94160      .   S
    C292   O689      0.94160      .   S
    C9     O690      0.95062  1_455   S
    C331   O690      0.95062      .   S
    C9     O691      0.95107  1_455   S
    C407   O691      0.95107      .   S
    C9     O692      0.94204      .   S
    C393   O692      0.94204      .   S
    C11    O693      0.95083      .   S
    C329   O693      0.95083      .   S
    C11    O694      0.95123      .   S
    C405   O694      0.95123      .   S
    C11    O695      0.94220      .   S
    C395   O695      0.94220      .   S
    C390   O696      0.58460      .   S
    C206   O696      0.58460      .   S
    C388   O697      0.58465      .   S
    C204   O697      0.58465      .   S
    C391   O698      0.58462      .   S
    C207   O698      0.58462      .   S
    C389   O699      0.58465      .   S
    C205   O699      0.58465      .   S
    C330   O700      0.58460      .   S
    C110   O700      0.58460      .   S
    C331   O701      0.58456      .   S
    C111   O701      0.58456      .   S
    C329   O702      0.58461      .   S
    C109   O702      0.58461      .   S
    C328   O703      0.58456      .   S
    C108   O703      0.58456      .   S
    C404   O704      0.58516      .   S
    C232   O704      0.58516      .   S
    C406   O705      0.58514      .   S
    C234   O705      0.58514      .   S
    C407   O706      0.58515      .   S
    C235   O706      0.58515      .   S
    C405   O707      0.58519      .   S
    C233   O707      0.58519      .   S
    C306   O708      0.58513      .   S
    C74    O708      0.58513      .   S
    C307   O709      0.58509      .   S
    C75    O709      0.58509      .   S
    C304   O710      0.58514      .   S
    C72    O710      0.58514      .   S
    C305   O711      0.58512      .   S
    C73    O711      0.58512      .   S
    C206   O712      0.70240      .   S
    C122   O712      0.70240      .   S
    C204   O713      0.70280      .   S
    C120   O713      0.70280      .   S
    C207   O714      0.70282      .   S
    C123   O714      0.70282      .   S
    C205   O715      0.70287      .   S
    C121   O715      0.70287      .   S
    C110   O716      0.70279      .   S
    C154   O716      0.70279      .   S
    C108   O717      0.70298      .   S
    C152   O717      0.70298      .   S
    C109   O718      0.70273      .   S
    C153   O718      0.70273      .   S
    C111   O719      0.70264      .   S
    C155   O719      0.70264      .   S
    C235   O720      0.70308      .   S
    C123   O720      0.70308      .   S
    C232   O721      0.70309      .   S
    C120   O721      0.70309      .   S
    C234   O722      0.70275      .   S
    C122   O722      0.70275      .   S
    C233   O723      0.70314      .   S
    C121   O723      0.70314      .   S
    C74    O724      0.70304      .   S
    C154   O724      0.70304      .   S
    C72    O725      0.70316      .   S
    C152   O725      0.70316      .   S
    C75    O726      0.70294      .   S
    C155   O726      0.70294      .   S
    C73    O727      0.70305      .   S
    C153   O727      0.70305      .   S
    C295   O728      0.58352      .   S
    C63    O728      0.58352      .   S
    C293   O729      0.58343      .   S
    C61    O729      0.58343      .   S
    C392   O730      0.58356      .   S
    C220   O730      0.58356      .   S
    C294   O731      0.58349      .   S
    C62    O731      0.58349      .   S
    C292   O732      0.58348      .   S
    C60    O732      0.58348      .   S
    C394   O733      0.58349      .   S
    C222   O733      0.58349      .   S
    C393   O734      0.58348      .   S
    C221   O734      0.58348      .   S
    C395   O735      0.58351      .   S
    C223   O735      0.58351      .   S
    C122   O736      0.71425      .   S
    C118   O736      0.71425      .   S
    C120   O737      0.71374      .   S
    C116   O737      0.71374      .   S
    C123   O738      0.71374      .   S
    C119   O738      0.71374      .   S
    C121   O739      0.71383      .   S
    C117   O739      0.71383      .   S
    C154   O740      0.71358      .   S
    C150   O740      0.71358      .   S
    C152   O741      0.71365      .   S
    C148   O741      0.71365      .   S
    C155   O742      0.71342      .   S
    C151   O742      0.71342      .   S
    C153   O743      0.71357      .   S
    C149   O743      0.71357      .   S
    C63    O744      0.70210      .   S
    C51    O744      0.70210      .   S
    C62    O745      0.70249      .   S
    C50    O745      0.70249      .   S
    C61    O746      0.70207      .   S
    C49    O746      0.70207      .   S
    C60    O747      0.70236      .   S
    C48    O747      0.70236      .   S
    C220   O748      0.70241      .   S
    C208   O748      0.70241      .   S
    C222   O749      0.70253      .   S
    C210   O749      0.70253      .   S
    C221   O750      0.70251      .   S
    C209   O750      0.70251      .   S
    C223   O751      0.70259      .   S
    C211   O751      0.70259      .   S
    C118   O752      0.71409      .   S
    C134   O752      0.71409      .   S
    C118   O753      0.70295      .   S
    C114   O753      0.70295      .   S
    C119   O754      0.71409      .   S
    C135   O754      0.71409      .   S
    C119   O755      0.70296      .   S
    C115   O755      0.70296      .   S
    C116   O756      0.71408      .   S
    C132   O756      0.71408      .   S
    C116   O757      0.70295      .   S
    C112   O757      0.70295      .   S
    C117   O758      0.71412      .   S
    C133   O758      0.71412      .   S
    C117   O759      0.70300      .   S
    C113   O759      0.70300      .   S
    C150   O760      0.71019      .   S
    C166   O760      0.71019  1_455   S
    C150   O761      0.70305      .   S
    C146   O761      0.70305      .   S
    C148   O762      0.71413      .   S
    C164   O762      0.71413      .   S
    C148   O763      0.70301      .   S
    C144   O763      0.70301      .   S
    C149   O764      0.71414      .   S
    C165   O764      0.71414      .   S
    C149   O765      0.70300      .   S
    C145   O765      0.70300      .   S
    C151   O766      0.71072      .   S
    C167   O766      0.71072  1_455   S
    C151   O767      0.70276      .   S
    C147   O767      0.70276      .   S
    C134   O768      0.58405      .   S
    C342   O768      0.58405      .   S
    C132   O769      0.58418      .   S
    C340   O769      0.58418      .   S
    C135   O770      0.58418      .   S
    C343   O770      0.58418      .   S
    C133   O771      0.58417      .   S
    C341   O771      0.58417      .   S
    C164   O772      0.58418      .   S
    C362   O772      0.58418      .   S
    C165   O773      0.58418      .   S
    C363   O773      0.58418      .   S
    C166   O774      0.58838      .   S
    C360   O774      0.58838      .   S
    C167   O775      0.58782      .   S
    C361   O775      0.58782      .   S
    C336   O776      0.58564      .   S
    C128   O776      0.58564      .   S
    C339   O777      0.58510      .   S
    C131   O777      0.58510      .   S
    C338   O778      0.58509      .   S
    C130   O778      0.58509      .   S
    C359   O779      0.58512      .   S
    C163   O779      0.58512      .   S
    C358   O780      0.58510      .   S
    C162   O780      0.58510      .   S
    C337   O781      0.58509      .   S
    C129   O781      0.58509      .   S
    C357   O782      0.58510      .   S
    C161   O782      0.58510      .   S
    C356   O783      0.58511      .   S
    C160   O783      0.58511      .   S
    C131   O784      0.70620      .   S
    C115   O784      0.70620      .   S
    C130   O785      0.70617      .   S
    C114   O785      0.70617      .   S
    C163   O786      0.70620      .   S
    C146   O786      0.70620      .   S
    C128   O787      0.70619      .   S
    C112   O787      0.70619      .   S
    C162   O788      0.70613  1_545   S
    C147   O788      0.70613      .   S
    C129   O789      0.70620      .   S
    C113   O789      0.70620      .   S
    C161   O790      0.70620      .   S
    C144   O790      0.70620      .   S
    C160   O791      0.70619  1_545   S
    C145   O791      0.70619      .   S
    C115   O792      0.70250      .   S
    C127   O792      0.70250      .   S
    C114   O793      0.70243      .   S
    C126   O793      0.70243      .   S
    C112   O794      0.70256      .   S
    C124   O794      0.70256      .   S
    C113   O795      0.70259      .   S
    C125   O795      0.70259      .   S
    C146   O796      0.70236      .   S
    C158   O796      0.70236      .   S
    C147   O797      0.70254      .   S
    C159   O797      0.70254      .   S
    C144   O798      0.70245      .   S
    C156   O798      0.70245      .   S
    C145   O799      0.70232      .   S
    C157   O799      0.70232      .   S
    C51    O800      0.70624      .   S
    C66    O800      0.70624  1_545   S
    C51    O801      0.70324      .   S
    C55    O801      0.70324      .   S
    C50    O802      0.70618      .   S
    C67    O802      0.70618      .   S
    C50    O803      0.70305      .   S
    C54    O803      0.70305      .   S
    C49    O804      0.70622      .   S
    C64    O804      0.70622  1_545   S
    C49    O805      0.70310      .   S
    C53    O805      0.70310      .   S
    C48    O806      0.70620      .   S
    C65    O806      0.70620      .   S
    C48    O807      0.70301      .   S
    C52    O807      0.70301      .   S
    C210   O808      0.70619      .   S
    C226   O808      0.70619      .   S
    C210   O809      0.70297      .   S
    C214   O809      0.70297      .   S
    C208   O810      0.70618      .   S
    C224   O810      0.70618      .   S
    C208   O811      0.70294      .   S
    C212   O811      0.70294      .   S
    C211   O812      0.70621      .   S
    C227   O812      0.70621      .   S
    C211   O813      0.70304      .   S
    C215   O813      0.70304      .   S
    C209   O814      0.70619      .   S
    C225   O814      0.70619      .   S
    C209   O815      0.70299      .   S
    C213   O815      0.70299      .   S
    C66    O816      0.58510      .   S
    C298   O816      0.58510      .   S
    C67    O817      0.58506      .   S
    C299   O817      0.58506      .   S
    C227   O818      0.58507      .   S
    C399   O818      0.58507      .   S
    C226   O819      0.58509      .   S
    C398   O819      0.58509      .   S
    C64    O820      0.58510      .   S
    C296   O820      0.58510      .   S
    C65    O821      0.58511      .   S
    C297   O821      0.58511      .   S
    C224   O822      0.58506      .   S
    C396   O822      0.58506      .   S
    C225   O823      0.58510      .   S
    C397   O823      0.58510      .   S
    C301   O824      0.58417      .   S
    C69    O824      0.58417      .   S
    C303   O825      0.58417      .   S
    C71    O825      0.58417      .   S
    C300   O826      0.58413      .   S
    C68    O826      0.58413      .   S
    C302   O827      0.58416      .   S
    C70    O827      0.58416      .   S
    C403   O828      0.58430      .   S
    C229   O828      0.58430      .   S
    C402   O829      0.58430      .   S
    C228   O829      0.58430      .   S
    C401   O830      0.58415      .   S
    C231   O830      0.58415      .   S
    C400   O831      0.58417      .   S
    C230   O831      0.58417      .   S
    C71    O832      0.71412      .   S
    C55    O832      0.71412      .   S
    C69    O833      0.71411      .   S
    C53    O833      0.71411      .   S
    C68    O834      0.71417      .   S
    C52    O834      0.71417      .   S
    C70    O835      0.71413      .   S
    C54    O835      0.71413      .   S
    C229   O836      0.71410  1_655   S
    C213   O836      0.71410      .   S
    C228   O837      0.71409  1_655   S
    C212   O837      0.71409      .   S
    C231   O838      0.71418      .   S
    C215   O838      0.71418      .   S
    C230   O839      0.71411      .   S
    C214   O839      0.71411      .   S
    C55    O840      0.71356      .   S
    C59    O840      0.71356      .   S
    C53    O841      0.71287      .   S
    C57    O841      0.71287      .   S
    C54    O842      0.71361      .   S
    C58    O842      0.71361      .   S
    C52    O843      0.71363      .   S
    C56    O843      0.71363      .   S
    C213   O844      0.71372      .   S
    C217   O844      0.71372      .   S
    C212   O845      0.71365      .   S
    C216   O845      0.71365      .   S
    C215   O846      0.71380      .   S
    C219   O846      0.71380      .   S
    C214   O847      0.71371      .   S
    C218   O847      0.71371      .   S
    C127   O848      0.58343      .   S
    C335   O848      0.58343      .   S
    C126   O849      0.58349      .   S
    C334   O849      0.58349      .   S
    C125   O850      0.58347      .   S
    C333   O850      0.58347      .   S
    C124   O851      0.58346      .   S
    C332   O851      0.58346      .   S
    C158   O852      0.58347      .   S
    C354   O852      0.58347      .   S
    C156   O853      0.58348      .   S
    C352   O853      0.58348      .   S
    C157   O854      0.58343      .   S
    C353   O854      0.58343      .   S
    C159   O855      0.58336      .   S
    C355   O855      0.58336      .   S
    C59    O856      0.70305      .   S
    C171   O856      0.70305      .   S
    C59    O857      0.70278      .   S
    C271   O857      0.70278      .   S
    C57    O858      0.70321      .   S
    C169   O858      0.70321      .   S
    C57    O859      0.70299      .   S
    C269   O859      0.70299      .   S
    C58    O860      0.70311      .   S
    C170   O860      0.70311      .   S
    C58    O861      0.70287      .   S
    C270   O861      0.70287      .   S
    C56    O862      0.70306      .   S
    C168   O862      0.70306      .   S
    C56    O863      0.70279      .   S
    C268   O863      0.70279      .   S
    C217   O864      0.70306      .   S
    C137   O864      0.70306      .   S
    C217   O865      0.70283      .   S
    C45    O865      0.70283      .   S
    C219   O866      0.70315      .   S
    C139   O866      0.70315      .   S
    C219   O867      0.70291      .   S
    C47    O867      0.70291      .   S
    C216   O868      0.70297      .   S
    C136   O868      0.70297      .   S
    C216   O869      0.70266      .   S
    C44    O869      0.70266      .   S
    C218   O870      0.70311      .   S
    C138   O870      0.70311      .   S
    C218   O871      0.70283      .   S
    C46    O871      0.70283      .   S
    C335   O872      0.94209      .   S
    C15    O872      0.94209      .   S
    C334   O873      0.94197      .   S
    C14    O873      0.94197      .   S
    C333   O874      0.94248      .   S
    C13    O874      0.94248      .   S
    C332   O875      0.94240      .   S
    C12    O875      0.94240      .   S
    C354   O876      0.94201      .   S
    C1     O876      0.94201  1_455   S
    C352   O877      0.94207      .   S
    C3     O877      0.94207      .   S
    C353   O878      0.94170      .   S
    C2     O878      0.94170      .   S
    C355   O879      0.94167      .   S
    C0     O879      0.94167  1_455   S
    C171   O880      0.58487      .   S
    C367   O880      0.58487      .   S
    C169   O881      0.58507      .   S
    C365   O881      0.58507      .   S
    C170   O882      0.58515      .   S
    C366   O882      0.58515      .   S
    C168   O883      0.58513      .   S
    C364   O883      0.58513      .   S
    C138   O884      0.58516      .   S
    C346   O884      0.58516      .   S
    C139   O885      0.58518      .   S
    C347   O885      0.58518      .   S
    C136   O886      0.58513      .   S
    C344   O886      0.58513      .   S
    C137   O887      0.58514      .   S
    C345   O887      0.58514      .   S
    C271   O888      0.58459      .   S
    C431   O888      0.58459      .   S
    C270   O889      0.58463      .   S
    C430   O889      0.58463      .   S
    C269   O890      0.58459      .   S
    C429   O890      0.58459      .   S
    C268   O891      0.58464      .   S
    C428   O891      0.58464      .   S
    C45    O892      0.58461      .   S
    C289   O892      0.58461      .   S
    C47    O893      0.58466      .   S
    C291   O893      0.58466      .   S
    C44    O894      0.58460      .   S
    C288   O894      0.58460      .   S
    C46    O895      0.58463      .   S
    C290   O895      0.58463      .   S
    C367   O896      0.95089      .   S
    C2     O896      0.95089      .   S
    C365   O897      0.95033      .   S
    C0     O897      0.95033      .   S
    C366   O898      0.95099      .   S
    C3     O898      0.95099      .   S
    C364   O899      0.95069      .   S
    C1     O899      0.95069      .   S
    C347   O900      0.95147      .   S
    C15    O900      0.95147      .   S
    C346   O901      0.95116      .   S
    C14    O901      0.95116      .   S
    C345   O902      0.95083      .   S
    C13    O902      0.95083      .   S
    C344   O903      0.95032      .   S
    C12    O903      0.95032      .   S
    C431   O904      0.95113      .   S
    C15    O904      0.95113      .   S
    C430   O905      0.95167      .   S
    C14    O905      0.95167      .   S
    C428   O906      0.95128      .   S
    C12    O906      0.95128      .   S
    C429   O907      0.95063      .   S
    C13    O907      0.95063      .   S
    C291   O908      0.95157      .   S
    C3     O908      0.95157      .   S
    C289   O909      0.95124      .   S
    C1     O909      0.95124      .   S
    C290   O910      0.95136      .   S
    C2     O910      0.95136  1_565   S
    C288   O911      0.95095      .   S
    C0     O911      0.95095  1_565   S
