# CIF file generated by openbabel 2.4.90, see http://openbabel.sf.net
data_I
_chemical_name_common ''
_cell_length_a 21.933
_cell_length_b 21.947
_cell_length_c 15.978
_cell_angle_alpha 89.996
_cell_angle_beta 90
_cell_angle_gamma 89.962
_space_group_name_H-M_alt 'P 1'
_space_group_name_Hall 'P 1'
loop_
    _symmetry_equiv_pos_as_xyz
    x,y,z
loop_
    _atom_site_label
    _atom_site_type_symbol
    _atom_site_fract_x
    _atom_site_fract_y
    _atom_site_fract_z
    _atom_site_occupancy
    Zr0     Zr   0.00006   0.99999   0.99976   1.000
    Zr1     Zr   0.00008   0.49999   0.99977   1.000
    Zr2     Zr   0.50002   0.99998   0.99974   1.000
    Zr3     Zr   0.50002   0.50001   0.99978   1.000
    Zr4     Zr   0.24987   0.99998   0.49970   1.000
    Zr5     Zr   0.24989   0.50006   0.49977   1.000
    Zr6     Zr   0.75020   0.00002   0.49970   1.000
    Zr7     Zr   0.75018   0.49994   0.49975   1.000
    Zr8     Zr   0.00011   0.24984   0.49972   1.000
    Zr9     Zr   0.00002   0.75017   0.49978   1.000
    Zr10    Zr   0.49999   0.24984   0.49973   1.000
    Zr11    Zr   0.50006   0.75015   0.49978   1.000
    Zr12    Zr   0.24988   0.24979   0.99979   1.000
    Zr13    Zr   0.24990   0.75013   0.99977   1.000
    Zr14    Zr   0.75017   0.24988   0.99976   1.000
    Zr15    Zr   0.75020   0.75019   0.99973   1.000
    N16     N    0.33084   0.08182   0.10869   1.000
    O17     O    0.43471   0.03225   0.03915   1.000
    O18     O    0.27879   0.18135   0.03283   1.000
    O19     O    0.28920   0.01883   0.35142   1.000
    N20     N    0.08078   0.58208   0.39089   1.000
    O21     O    0.18461   0.53242   0.46040   1.000
    O22     O    0.02887   0.68171   0.46670   1.000
    O23     O    0.03923   0.51893   0.14815   1.000
    N24     N    0.66913   0.33197   0.39110   1.000
    O25     O    0.71097   0.26892   0.14825   1.000
    O26     O    0.56532   0.28224   0.46051   1.000
    O27     O    0.72117   0.43151   0.46682   1.000
    N28     N    0.66927   0.83201   0.39116   1.000
    O29     O    0.56540   0.78246   0.46052   1.000
    O30     O    0.71101   0.76913   0.14825   1.000
    O31     O    0.72128   0.93156   0.46685   1.000
    N32     N    0.16926   0.83190   0.39121   1.000
    O33     O    0.21086   0.76903   0.14831   1.000
    O34     O    0.06537   0.78239   0.46055   1.000
    O35     O    0.22106   0.93151   0.46691   1.000
    N36     N    0.83089   0.66805   0.60834   1.000
    O37     O    0.93466   0.71785   0.53898   1.000
    O38     O    0.78923   0.73114   0.85119   1.000
    O39     O    0.77909   0.56838   0.53267   1.000
    N40     N    0.58090   0.16803   0.89119   1.000
    O41     O    0.68478   0.21763   0.96054   1.000
    O42     O    0.53913   0.23092   0.64827   1.000
    O43     O    0.52895   0.06846   0.96690   1.000
    N44     N    0.33089   0.58209   0.10865   1.000
    O45     O    0.43472   0.53241   0.03912   1.000
    O46     O    0.28921   0.51898   0.35142   1.000
    O47     O    0.27883   0.68166   0.03283   1.000
    N48     N    0.41900   0.41787   0.60867   1.000
    O49     O    0.47099   0.31826   0.53284   1.000
    O50     O    0.31520   0.46766   0.53916   1.000
    O51     O    0.46078   0.48106   0.85137   1.000
    N52     N    0.66921   0.91814   0.89078   1.000
    O53     O    0.72127   0.81862   0.96666   1.000
    O54     O    0.56535   0.96772   0.96028   1.000
    O55     O    0.71088   0.98116   0.64802   1.000
    N56     N    0.16925   0.91820   0.89080   1.000
    O57     O    0.06539   0.96779   0.96035   1.000
    O58     O    0.22108   0.81858   0.96673   1.000
    O59     O    0.21070   0.98117   0.64810   1.000
    N60     N    0.16921   0.41796   0.89094   1.000
    O61     O    0.21075   0.48111   0.64817   1.000
    O62     O    0.22105   0.31828   0.96673   1.000
    O63     O    0.06540   0.46767   0.96043   1.000
    N64     N    0.66914   0.41792   0.89088   1.000
    O65     O    0.71086   0.48102   0.64811   1.000
    O66     O    0.56531   0.46760   0.96042   1.000
    O67     O    0.72121   0.31835   0.96669   1.000
    N68     N    0.08078   0.66811   0.89115   1.000
    O69     O    0.02894   0.56846   0.96686   1.000
    O70     O    0.03914   0.73114   0.64826   1.000
    O71     O    0.18455   0.71784   0.96056   1.000
    N72     N    0.58104   0.66803   0.89117   1.000
    O73     O    0.68481   0.71786   0.96053   1.000
    O74     O    0.53922   0.73109   0.64828   1.000
    O75     O    0.52906   0.56843   0.96686   1.000
    N76     N    0.08067   0.16809   0.89118   1.000
    O77     O    0.03919   0.23092   0.64822   1.000
    O78     O    0.18452   0.21760   0.96058   1.000
    O79     O    0.02884   0.06849   0.96691   1.000
    N80     N    0.91930   0.41791   0.60862   1.000
    O81     O    0.97124   0.31830   0.53280   1.000
    O82     O    0.81547   0.46757   0.53911   1.000
    O83     O    0.96086   0.48106   0.85137   1.000
    N84     N    0.91931   0.91819   0.60868   1.000
    O85     O    0.81549   0.96778   0.53913   1.000
    O86     O    0.97120   0.81861   0.53284   1.000
    O87     O    0.96081   0.98115   0.85141   1.000
    N88     N    0.83085   0.16809   0.60820   1.000
    O89     O    0.78920   0.23097   0.85118   1.000
    O90     O    0.93475   0.21762   0.53896   1.000
    O91     O    0.77903   0.06849   0.53254   1.000
    N92     N    0.58107   0.58213   0.39088   1.000
    O93     O    0.52906   0.68173   0.46668   1.000
    O94     O    0.53927   0.51895   0.14817   1.000
    O95     O    0.68487   0.53234   0.46035   1.000
    N96     N    0.33077   0.16799   0.60833   1.000
    O97     O    0.28905   0.23085   0.85120   1.000
    O98     O    0.27877   0.06845   0.53259   1.000
    O99     O    0.43465   0.21753   0.53895   1.000
    N100    N    0.41916   0.83196   0.10831   1.000
    O101    O    0.47110   0.93152   0.03256   1.000
    O102    O    0.31528   0.78237   0.03899   1.000
    O103    O    0.46093   0.76908   0.35123   1.000
    N104    N    0.41902   0.33196   0.10830   1.000
    O105    O    0.46084   0.26890   0.35122   1.000
    O106    O    0.31526   0.28211   0.03899   1.000
    O107    O    0.47098   0.43158   0.03268   1.000
    N108    N    0.83091   0.58204   0.10858   1.000
    O109    O    0.77905   0.68171   0.03278   1.000
    O110    O    0.78932   0.51889   0.35131   1.000
    O111    O    0.93473   0.53232   0.03910   1.000
    N112    N    0.91940   0.83191   0.10831   1.000
    O113    O    0.96088   0.76909   0.35128   1.000
    O114    O    0.97126   0.93150   0.03258   1.000
    O115    O    0.81554   0.78239   0.03892   1.000
    N116    N    0.58101   0.08193   0.39070   1.000
    O117    O    0.68488   0.03231   0.45986   1.000
    O118    O    0.53928   0.01885   0.14809   1.000
    O119    O    0.52898   0.18146   0.46663   1.000
    N120    N    0.91929   0.33190   0.10830   1.000
    O121    O    0.97117   0.43153   0.03267   1.000
    O122    O    0.96092   0.26886   0.35119   1.000
    O123    O    0.81551   0.28218   0.03894   1.000
    N124    N    0.83086   0.08181   0.10858   1.000
    O125    O    0.93472   0.03221   0.03913   1.000
    O126    O    0.77900   0.18144   0.03277   1.000
    O127    O    0.78937   0.01884   0.35134   1.000
    N128    N    0.16923   0.33193   0.39116   1.000
    O129    O    0.06545   0.28215   0.46051   1.000
    O130    O    0.22101   0.43161   0.46682   1.000
    O131    O    0.21085   0.26884   0.14831   1.000
    N132    N    0.33092   0.66804   0.60840   1.000
    O133    O    0.28910   0.73109   0.85127   1.000
    O134    O    0.27889   0.56849   0.53270   1.000
    O135    O    0.43472   0.71776   0.53899   1.000
    N136    N    0.08074   0.08180   0.39082   1.000
    O137    O    0.03926   0.01883   0.14808   1.000
    O138    O    0.18458   0.03222   0.46028   1.000
    O139    O    0.02891   0.18140   0.46667   1.000
    N140    N    0.41905   0.91807   0.60869   1.000
    O141    O    0.47108   0.81853   0.53286   1.000
    O142    O    0.31519   0.96771   0.53919   1.000
    O143    O    0.46077   0.98114   0.85138   1.000
loop_
    _geom_bond_atom_site_label_1
    _geom_bond_atom_site_label_2
    _geom_bond_distance
    _geom_bond_site_symmetry_2
    _ccdc_geom_bond_type
    N16    O17       2.75756      .   S
    Zr2    O17       1.71736  1_566   S
    N16    O18       2.74587      .   S
    Zr12   O18       1.71333  1_556   S
    N16    O19       4.21761      .   S
    Zr4    O19       2.55515  1_565   S
    N20    O21       2.75756      .   S
    Zr5    O21       1.71729      .   S
    N20    O22       2.74613      .   S
    Zr9    O22       1.71353      .   S
    N20    O23       4.21864      .   S
    Zr1    O23       2.55567  1_556   S
    N24    O25       4.22046      .   S
    Zr14   O25       2.55780  1_556   S
    N24    O26       2.75828      .   S
    Zr10   O26       1.71833      .   S
    N24    O27       2.74658      .   S
    Zr7    O27       1.71415      .   S
    N28    O29       2.75762      .   S
    Zr11   O29       1.71803      .   S
    N28    O30       4.21972      .   S
    Zr15   O30       2.55776  1_556   S
    N28    O31       2.74598      .   S
    Zr6    O31       1.71374  1_545   S
    N32    O33       4.21872      .   S
    Zr13   O33       2.55692  1_556   S
    N32    O34       2.75742      .   S
    Zr9    O34       1.71709      .   S
    N32    O35       2.74537      .   S
    Zr4    O35       1.71269      .   S
    N36    O37       2.75791      .   S
    Zr9    O37       1.71802  1_455   S
    N36    O38       4.21981      .   S
    Zr15   O38       2.55745      .   S
    N36    O39       2.74619      .   S
    Zr7    O39       1.71358      .   S
    N40    O41       2.75799      .   S
    Zr14   O41       1.71814      .   S
    N40    O42       4.21974      .   S
    Zr10   O42       2.55776      .   S
    N40    O43       2.74608      .   S
    Zr2    O43       1.71383  1_565   S
    N44    O45       2.75782      .   S
    Zr3    O45       1.71786  1_556   S
    N44    O46       4.21917      .   S
    Zr5    O46       2.55641      .   S
    N44    O47       2.74641      .   S
    Zr13   O47       1.71418  1_556   S
    N48    O49       2.74667      .   S
    Zr10   O49       1.71403      .   S
    N48    O50       2.75812      .   S
    Zr5    O50       1.71823      .   S
    N48    O51       4.21942      .   S
    Zr3    O51       2.55675      .   S
    N52    O53       2.74597      .   S
    Zr15   O53       1.71349      .   S
    N52    O54       2.75738      .   S
    Zr2    O54       1.71764      .   S
    N52    O55       4.21822      .   S
    Zr6    O55       2.55580  1_545   S
    N56    O57       2.75770      .   S
    Zr0    O57       1.71689      .   S
    N56    O58       2.74614      .   S
    Zr13   O58       1.71276      .   S
    N56    O59       4.21606      .   S
    Zr4    O59       2.55556      .   S
    N60    O61       4.21874      .   S
    Zr5    O61       2.55589      .   S
    N60    O62       2.74625      .   S
    Zr12   O62       1.71377      .   S
    N60    O63       2.75765      .   S
    Zr1    O63       1.71744      .   S
    N64    O65       4.21928      .   S
    Zr7    O65       2.55654      .   S
    N64    O66       2.75790      .   S
    Zr3    O66       1.71789      .   S
    N64    O67       2.74653      .   S
    Zr14   O67       1.71433      .   S
    N68    O69       2.74616      .   S
    Zr1    O69       1.71370      .   S
    N68    O70       4.21971      .   S
    Zr9    O70       2.55711      .   S
    N68    O71       2.75773      .   S
    Zr13   O71       1.71765      .   S
    N72    O73       2.75828      .   S
    Zr15   O73       1.71863      .   S
    N72    O74       4.22091      .   S
    Zr11   O74       2.55766      .   S
    N72    O75       2.74661      .   S
    Zr3    O75       1.71428      .   S
    N76    O77       4.21869      .   S
    Zr8    O77       2.55654      .   S
    N76    O78       2.75724      .   S
    Zr12   O78       1.71685      .   S
    N76    O79       2.74548      .   S
    Zr0    O79       1.71317  1_565   S
    N80    O81       2.74617      .   S
    Zr8    O81       1.71368  1_455   S
    N80    O82       2.75758      .   S
    Zr7    O82       1.71740      .   S
    N80    O83       4.21870      .   S
    Zr1    O83       2.55652  1_455   S
    N84    O85       2.75710      .   S
    Zr6    O85       1.71665  1_545   S
    N84    O86       2.74546      .   S
    Zr9    O86       1.71269  1_455   S
    N84    O87       4.21685      .   S
    Zr0    O87       2.55562  1_455   S
    N88    O89       4.22028      .   S
    Zr14   O89       2.55747      .   S
    N88    O90       2.75704      .   S
    Zr8    O90       1.71750  1_455   S
    N88    O91       2.74502      .   S
    Zr6    O91       1.71309      .   S
    N92    O93       2.74653      .   S
    Zr11   O93       1.71410      .   S
    N92    O94       4.21952      .   S
    Zr3    O94       2.55657  1_556   S
    N92    O95       2.75787      .   S
    Zr7    O95       1.71838      .   S
    N96    O97       4.21881      .   S
    Zr12   O97       2.55877      .   S
    N96    O98       2.74611      .   S
    Zr4    O98       1.71399  1_565   S
    N96    O99       2.75779      .   S
    Zr10   O99       1.71771      .   S
    N100   O101      2.74595      .   S
    Zr2    O101      1.71358  1_556   S
    N100   O102      2.75785      .   S
    Zr13   O102      1.71795  1_556   S
    N100   O103      4.21981      .   S
    Zr11   O103      2.55773      .   S
    N104   O105      4.22126      .   S
    Zr10   O105      2.55779      .   S
    N104   O106      2.75797      .   S
    Zr12   O106      1.71849  1_556   S
    N104   O107      2.74623      .   S
    Zr3    O107      1.71416  1_556   S
    N108   O109      2.74630      .   S
    Zr15   O109      1.71374  1_556   S
    N108   O110      4.21841      .   S
    Zr7    O110      2.55647      .   S
    N108   O111      2.75784      .   S
    Zr1    O111      1.71785  1_456   S
    N112   O113      4.21866      .   S
    Zr9    O113      2.55714  1_455   S
    N112   O114      2.74549      .   S
    Zr0    O114      1.71317  1_456   S
    N112   O115      2.75719      .   S
    Zr15   O115      1.71674  1_556   S
    N116   O117      2.75562      .   S
    Zr6    O117      1.72003      .   S
    N116   O118      4.21709      .   S
    Zr2    O118      2.55572  1_566   S
    N116   O119      2.74646      .   S
    Zr10   O119      1.71317      .   S
    N120   O121      2.74575      .   S
    Zr1    O121      1.71379  1_456   S
    N120   O122      4.21989      .   S
    Zr8    O122      2.55821  1_455   S
    N120   O123      2.75729      .   S
    Zr14   O123      1.71758  1_556   S
    N124   O125      2.75724      .   S
    Zr0    O125      1.71716  1_466   S
    N124   O126      2.74548      .   S
    Zr14   O126      1.71270  1_556   S
    N124   O127      4.21720      .   S
    Zr6    O127      2.55500      .   S
    N128   O129      2.75775      .   S
    Zr8    O129      1.71766      .   S
    N128   O130      2.74600      .   S
    Zr5    O130      1.71366      .   S
    N128   O131      4.21969      .   S
    Zr12   O131      2.55712  1_556   S
    N132   O133      4.22066      .   S
    Zr13   O133      2.55803      .   S
    N132   O134      2.74641      .   S
    Zr5    O134      1.71411      .   S
    N132   O135      2.75815      .   S
    Zr11   O135      1.71825      .   S
    N136   O137      4.21686      .   S
    Zr0    O137      2.55485  1_566   S
    N136   O138      2.75662      .   S
    Zr4    O138      1.71649  1_565   S
    N136   O139      2.74532      .   S
    Zr8    O139      1.71248      .   S
    N140   O141      2.74587      .   S
    Zr11   O141      1.71310      .   S
    N140   O142      2.75780      .   S
    Zr4    O142      1.71794      .   S
    N140   O143      4.21805      .   S
    Zr2    O143      2.55582      .   S
