# CIF file generated by openbabel 2.4.90, see http://openbabel.sf.net
data_I
_chemical_name_common ''
_cell_length_a 19.791
_cell_length_b 19.792
_cell_length_c 21.892
_cell_angle_alpha 89.997
_cell_angle_beta 90.002
_cell_angle_gamma 119.953
_space_group_name_H-M_alt 'P 1'
_space_group_name_Hall 'P 1'
loop_
    _symmetry_equiv_pos_as_xyz
    x,y,z
loop_
    _atom_site_label
    _atom_site_type_symbol
    _atom_site_fract_x
    _atom_site_fract_y
    _atom_site_fract_z
    _atom_site_occupancy
    C0      C    0.45469   0.04546   0.75003   1.000
    C1      C    0.45469   0.54545   0.75003   1.000
    C2      C    0.95469   0.04546   0.75003   1.000
    C3      C    0.95469   0.54545   0.75003   1.000
    C4      C    0.09113   0.04564   0.41671   1.000
    C5      C    0.09113   0.54563   0.41671   1.000
    C6      C    0.59113   0.04564   0.41671   1.000
    C7      C    0.59113   0.54563   0.41671   1.000
    C8      C    0.45433   0.40890   0.08331   1.000
    C9      C    0.45433   0.90888   0.08331   1.000
    C10     C    0.95433   0.40889   0.08331   1.000
    C11     C    0.95433   0.90888   0.08331   1.000
    C12     C    0.04545   0.45468   0.24990   1.000
    C13     C    0.04545   0.95467   0.24990   1.000
    C14     C    0.54545   0.45468   0.24997   1.000
    C15     C    0.54545   0.95467   0.24997   1.000
    C16     C    0.40892   0.45432   0.91670   1.000
    C17     C    0.40892   0.95431   0.91670   1.000
    C18     C    0.90892   0.45432   0.91670   1.000
    C19     C    0.90892   0.95431   0.91670   1.000
    C20     C    0.04564   0.09116   0.58330   1.000
    C21     C    0.04564   0.59116   0.58330   1.000
    C22     C    0.54564   0.09116   0.58330   1.000
    C23     C    0.54564   0.59115   0.58330   1.000
    C24     C    0.12317   0.16419   0.81628   1.000
    C25     C    0.12317   0.66418   0.81628   1.000
    C26     C    0.62317   0.16419   0.81628   1.000
    C27     C    0.62316   0.66418   0.81628   1.000
    C28     C    0.20890   0.25053   0.63450   1.000
    C29     C    0.20890   0.75052   0.63456   1.000
    C30     C    0.70890   0.25053   0.63456   1.000
    C31     C    0.70890   0.75051   0.63450   1.000
    C32     C    0.04078   0.37700   0.48298   1.000
    C33     C    0.04077   0.87699   0.48298   1.000
    C34     C    0.54077   0.37699   0.48298   1.000
    C35     C    0.54077   0.87698   0.48298   1.000
    C36     C    0.04108   0.29111   0.30125   1.000
    C37     C    0.04109   0.79111   0.30120   1.000
    C38     C    0.54109   0.29111   0.30124   1.000
    C39     C    0.54109   0.79110   0.30124   1.000
    C40     C    0.33573   0.45898   0.14959   1.000
    C41     C    0.33573   0.95897   0.14900   1.000
    C42     C    0.83573   0.45898   0.14959   1.000
    C43     C    0.83572   0.95897   0.14900   1.000
    C44     C    0.24972   0.45901   0.96786   1.000
    C45     C    0.24972   0.95901   0.96786   1.000
    C46     C    0.74972   0.45901   0.96780   1.000
    C47     C    0.74972   0.95900   0.96786   1.000
    C48     C    0.37709   0.33587   0.31634   1.000
    C49     C    0.37708   0.83586   0.31634   1.000
    C50     C    0.87709   0.33587   0.31634   1.000
    C51     C    0.87709   0.83587   0.31634   1.000
    C52     C    0.29105   0.24966   0.13466   1.000
    C53     C    0.29104   0.74964   0.13466   1.000
    C54     C    0.79105   0.24965   0.13466   1.000
    C55     C    0.79105   0.74964   0.13460   1.000
    C56     C    0.45911   0.12286   0.98309   1.000
    C57     C    0.45910   0.62284   0.98309   1.000
    C58     C    0.95911   0.12285   0.98309   1.000
    C59     C    0.95910   0.62284   0.98309   1.000
    C60     C    0.45927   0.20907   0.80138   1.000
    C61     C    0.45927   0.70906   0.80138   1.000
    C62     C    0.95926   0.20906   0.80138   1.000
    C63     C    0.95927   0.70906   0.80138   1.000
    C64     C    0.16429   0.04125   0.64968   1.000
    C65     C    0.16429   0.54124   0.64968   1.000
    C66     C    0.66430   0.04125   0.64960   1.000
    C67     C    0.66429   0.54124   0.64960   1.000
    C68     C    0.25021   0.04084   0.46798   1.000
    C69     C    0.25021   0.54083   0.46798   1.000
    C70     C    0.75020   0.04082   0.46798   1.000
    C71     C    0.75020   0.54082   0.46798   1.000
    C72     C    0.45898   0.33570   0.85042   1.000
    C73     C    0.45897   0.83568   0.85040   1.000
    C74     C    0.95898   0.33569   0.85042   1.000
    C75     C    0.95897   0.83568   0.85042   1.000
    C76     C    0.45905   0.24972   0.03210   1.000
    C77     C    0.45906   0.74971   0.03215   1.000
    C78     C    0.95905   0.24972   0.03216   1.000
    C79     C    0.95906   0.74971   0.03216   1.000
    C80     C    0.16418   0.12317   0.18373   1.000
    C81     C    0.16418   0.62316   0.18373   1.000
    C82     C    0.66417   0.12317   0.18373   1.000
    C83     C    0.66417   0.62316   0.18373   1.000
    C84     C    0.25048   0.20890   0.36545   1.000
    C85     C    0.25048   0.70889   0.36545   1.000
    C86     C    0.75049   0.20889   0.36545   1.000
    C87     C    0.75049   0.70888   0.36545   1.000
    C88     C    0.37700   0.04083   0.51703   1.000
    C89     C    0.37700   0.54083   0.51703   1.000
    C90     C    0.87700   0.04083   0.51703   1.000
    C91     C    0.87700   0.54082   0.51703   1.000
    C92     C    0.29108   0.04106   0.69877   1.000
    C93     C    0.29107   0.54105   0.69877   1.000
    C94     C    0.79107   0.04105   0.69877   1.000
    C95     C    0.79107   0.54105   0.69877   1.000
    C96     C    0.04126   0.16434   0.35033   1.000
    C97     C    0.04126   0.66433   0.35033   1.000
    C98     C    0.54127   0.16433   0.35033   1.000
    C99     C    0.54126   0.66432   0.35033   1.000
    C100    C    0.04079   0.25022   0.53204   1.000
    C101    C    0.04079   0.75021   0.53204   1.000
    C102    C    0.54079   0.25021   0.53203   1.000
    C103    C    0.54079   0.75020   0.53203   1.000
    C104    C    0.33589   0.37709   0.68367   1.000
    C105    C    0.33589   0.87707   0.68367   1.000
    C106    C    0.83589   0.37709   0.68367   1.000
    C107    C    0.83589   0.87707   0.68367   1.000
    C108    C    0.24968   0.29105   0.86535   1.000
    C109    C    0.24967   0.79105   0.86535   1.000
    C110    C    0.74968   0.29105   0.86535   1.000
    C111    C    0.74967   0.79104   0.86535   1.000
    C112    C    0.12286   0.45906   0.01692   1.000
    C113    C    0.12286   0.95905   0.01692   1.000
    C114    C    0.62286   0.45905   0.01692   1.000
    C115    C    0.62286   0.95905   0.01692   1.000
    C116    C    0.20911   0.45930   0.19863   1.000
    C117    C    0.20911   0.95930   0.19863   1.000
    C118    C    0.70911   0.45930   0.19863   1.000
    C119    C    0.70911   0.95929   0.19863   1.000
    C120    C    0.19687   0.23569   0.73689   1.000
    C121    C    0.19687   0.73568   0.73689   1.000
    C122    C    0.69687   0.23569   0.73689   1.000
    C123    C    0.69687   0.73567   0.73689   1.000
    C124    C    0.13381   0.17435   0.76750   1.000
    C125    C    0.13381   0.67434   0.76758   1.000
    C126    C    0.63381   0.17435   0.76758   1.000
    C127    C    0.63381   0.67434   0.76750   1.000
    C128    C    0.17691   0.21879   0.67495   1.000
    C129    C    0.17691   0.71878   0.67495   1.000
    C130    C    0.67691   0.21879   0.67490   1.000
    C131    C    0.67691   0.71878   0.67495   1.000
    C132    C    0.03841   0.30319   0.40358   1.000
    C133    C    0.03841   0.80318   0.40358   1.000
    C134    C    0.53841   0.30318   0.40358   1.000
    C135    C    0.53841   0.80317   0.40358   1.000
    C136    C    0.04023   0.36632   0.43428   1.000
    C137    C    0.04022   0.86631   0.43428   1.000
    C138    C    0.54022   0.36632   0.43428   1.000
    C139    C    0.54022   0.86631   0.43428   1.000
    C140    C    0.04147   0.32317   0.34164   1.000
    C141    C    0.04147   0.82316   0.34164   1.000
    C142    C    0.54147   0.32317   0.34160   1.000
    C143    C    0.54147   0.82316   0.34160   1.000
    C144    C    0.26443   0.46160   0.07018   1.000
    C145    C    0.26443   0.96159   0.07018   1.000
    C146    C    0.76443   0.46160   0.07010   1.000
    C147    C    0.76442   0.96159   0.07018   1.000
    C148    C    0.32564   0.45959   0.10089   1.000
    C149    C    0.32564   0.95958   0.10089   1.000
    C150    C    0.82564   0.45959   0.10089   1.000
    C151    C    0.82564   0.95957   0.10089   1.000
    C152    C    0.28136   0.45855   0.00824   1.000
    C153    C    0.28137   0.95855   0.00824   1.000
    C154    C    0.78136   0.45855   0.00820   1.000
    C155    C    0.78136   0.95854   0.00824   1.000
    C156    C    0.30324   0.26444   0.23699   1.000
    C157    C    0.30324   0.76442   0.23698   1.000
    C158    C    0.80324   0.26443   0.23699   1.000
    C159    C    0.80324   0.76442   0.23699   1.000
    C160    C    0.36636   0.32574   0.26765   1.000
    C161    C    0.36636   0.82572   0.26765   1.000
    C162    C    0.86636   0.32573   0.26765   1.000
    C163    C    0.86636   0.82572   0.26765   1.000
    C164    C    0.32311   0.28136   0.17503   1.000
    C165    C    0.32311   0.78135   0.17503   1.000
    C166    C    0.82311   0.28136   0.17503   1.000
    C167    C    0.82311   0.78135   0.17503   1.000
    C168    C    0.46169   0.19682   0.90370   1.000
    C169    C    0.46169   0.69681   0.90371   1.000
    C170    C    0.96169   0.19681   0.90372   1.000
    C171    C    0.96169   0.69680   0.90372   1.000
    C172    C    0.45977   0.13362   0.93400   1.000
    C173    C    0.45977   0.63360   0.93439   1.000
    C174    C    0.95977   0.13361   0.93440   1.000
    C175    C    0.95977   0.63360   0.93440   1.000
    C176    C    0.45878   0.17694   0.84176   1.000
    C177    C    0.45877   0.67692   0.84176   1.000
    C178    C    0.95877   0.17693   0.84176   1.000
    C179    C    0.95877   0.67692   0.84170   1.000
    C180    C    0.23556   0.03847   0.57031   1.000
    C181    C    0.23556   0.53846   0.57031   1.000
    C182    C    0.73556   0.03846   0.57031   1.000
    C183    C    0.73556   0.53845   0.57031   1.000
    C184    C    0.17436   0.04054   0.60099   1.000
    C185    C    0.17436   0.54053   0.60099   1.000
    C186    C    0.67436   0.04054   0.60099   1.000
    C187    C    0.67436   0.54053   0.60099   1.000
    C188    C    0.21860   0.04140   0.50836   1.000
    C189    C    0.21860   0.54139   0.50836   1.000
    C190    C    0.71859   0.04139   0.50836   1.000
    C191    C    0.71859   0.54138   0.50836   1.000
    C192    C    0.46162   0.26441   0.92984   1.000
    C193    C    0.46161   0.76439   0.92980   1.000
    C194    C    0.96162   0.26440   0.92984   1.000
    C195    C    0.96162   0.76439   0.92984   1.000
    C196    C    0.45956   0.32560   0.89912   1.000
    C197    C    0.45955   0.82558   0.89912   1.000
    C198    C    0.95956   0.32559   0.89912   1.000
    C199    C    0.95955   0.82558   0.89912   1.000
    C200    C    0.45858   0.28135   0.99170   1.000
    C201    C    0.45858   0.78134   0.99177   1.000
    C202    C    0.95858   0.28134   0.99178   1.000
    C203    C    0.95858   0.78133   0.99178   1.000
    C204    C    0.23566   0.19687   0.26310   1.000
    C205    C    0.23566   0.69686   0.26312   1.000
    C206    C    0.73566   0.19687   0.26313   1.000
    C207    C    0.73566   0.69686   0.26313   1.000
    C208    C    0.17435   0.13380   0.23243   1.000
    C209    C    0.17435   0.63379   0.23240   1.000
    C210    C    0.67435   0.13380   0.23243   1.000
    C211    C    0.67435   0.63379   0.23243   1.000
    C212    C    0.21875   0.17692   0.32507   1.000
    C213    C    0.21874   0.67691   0.32500   1.000
    C214    C    0.71875   0.17691   0.32507   1.000
    C215    C    0.71875   0.67690   0.32507   1.000
    C216    C    0.30316   0.03842   0.59644   1.000
    C217    C    0.30316   0.53841   0.59644   1.000
    C218    C    0.80316   0.03841   0.59644   1.000
    C219    C    0.80316   0.53840   0.59644   1.000
    C220    C    0.36633   0.04029   0.56573   1.000
    C221    C    0.36633   0.54029   0.56573   1.000
    C222    C    0.86633   0.04029   0.56573   1.000
    C223    C    0.86633   0.54028   0.56573   1.000
    C224    C    0.32314   0.04146   0.65838   1.000
    C225    C    0.32313   0.54144   0.65838   1.000
    C226    C    0.82313   0.04145   0.65838   1.000
    C227    C    0.82313   0.54144   0.65838   1.000
    C228    C    0.03844   0.23558   0.42971   1.000
    C229    C    0.03844   0.73557   0.42971   1.000
    C230    C    0.53844   0.23558   0.42970   1.000
    C231    C    0.53844   0.73557   0.42970   1.000
    C232    C    0.04058   0.17442   0.39903   1.000
    C233    C    0.04058   0.67440   0.39903   1.000
    C234    C    0.54058   0.17441   0.39902   1.000
    C235    C    0.54058   0.67440   0.39900   1.000
    C236    C    0.04135   0.21861   0.49166   1.000
    C237    C    0.04135   0.71860   0.49166   1.000
    C238    C    0.54135   0.21860   0.49166   1.000
    C239    C    0.54135   0.71859   0.49166   1.000
    C240    C    0.26445   0.30324   0.76303   1.000
    C241    C    0.26445   0.80323   0.76303   1.000
    C242    C    0.76445   0.30324   0.76303   1.000
    C243    C    0.76445   0.80323   0.76303   1.000
    C244    C    0.32573   0.36638   0.73236   1.000
    C245    C    0.32573   0.86637   0.73236   1.000
    C246    C    0.82574   0.36638   0.73236   1.000
    C247    C    0.82573   0.86636   0.73236   1.000
    C248    C    0.28139   0.32311   0.82498   1.000
    C249    C    0.28139   0.82310   0.82498   1.000
    C250    C    0.78139   0.32310   0.82498   1.000
    C251    C    0.78139   0.82309   0.82498   1.000
    C252    C    0.19684   0.46169   0.09630   1.000
    C253    C    0.19685   0.96169   0.09630   1.000
    C254    C    0.69685   0.46169   0.09630   1.000
    C255    C    0.69684   0.96168   0.09630   1.000
    C256    C    0.13361   0.45971   0.06562   1.000
    C257    C    0.13361   0.95970   0.06562   1.000
    C258    C    0.63361   0.45971   0.06562   1.000
    C259    C    0.63361   0.95970   0.06562   1.000
    C260    C    0.17697   0.45879   0.15825   1.000
    C261    C    0.17697   0.95879   0.15825   1.000
    C262    C    0.67697   0.45880   0.15825   1.000
    C263    C    0.67697   0.95878   0.15825   1.000
    C264    C    0.08044   0.12474   0.72696   1.000
    C265    C    0.08044   0.62473   0.72696   1.000
    C266    C    0.58044   0.12474   0.72696   1.000
    C267    C    0.58043   0.62473   0.72696   1.000
    C268    C    0.10706   0.15292   0.66934   1.000
    C269    C    0.10706   0.65291   0.66934   1.000
    C270    C    0.60706   0.15292   0.66934   1.000
    C271    C    0.60706   0.65291   0.66934   1.000
    C272    C    0.04411   0.41979   0.39367   1.000
    C273    C    0.04411   0.91978   0.39367   1.000
    C274    C    0.54411   0.41979   0.39366   1.000
    C275    C    0.54410   0.91978   0.39366   1.000
    C276    C    0.04556   0.39311   0.33604   1.000
    C277    C    0.04556   0.89310   0.33604   1.000
    C278    C    0.54557   0.39311   0.33604   1.000
    C279    C    0.54556   0.89310   0.33604   1.000
    C280    C    0.37521   0.45565   0.06020   1.000
    C281    C    0.37521   0.95564   0.06029   1.000
    C282    C    0.87521   0.45565   0.06020   1.000
    C283    C    0.87521   0.95564   0.06029   1.000
    C284    C    0.34714   0.45430   0.00000   1.000
    C285    C    0.34714   0.95430   0.00000   1.000
    C286    C    0.84713   0.45430   0.00000   1.000
    C287    C    0.84713   0.95429   0.00000   1.000
    C288    C    0.41969   0.37535   0.22700   1.000
    C289    C    0.41968   0.87533   0.22000   1.000
    C290    C    0.91968   0.37534   0.22700   1.000
    C291    C    0.91968   0.87534   0.22700   1.000
    C292    C    0.39296   0.34721   0.16939   1.000
    C293    C    0.39296   0.84720   0.16939   1.000
    C294    C    0.89296   0.34721   0.16939   1.000
    C295    C    0.89296   0.84720   0.16939   1.000
    C296    C    0.45596   0.08021   0.89370   1.000
    C297    C    0.45595   0.58019   0.89370   1.000
    C298    C    0.95596   0.08020   0.89376   1.000
    C299    C    0.95595   0.58019   0.89376   1.000
    C300    C    0.45467   0.10699   0.83614   1.000
    C301    C    0.45466   0.60698   0.83614   1.000
    C302    C    0.95466   0.10699   0.83614   1.000
    C303    C    0.95466   0.60698   0.83614   1.000
    C304    C    0.12478   0.04441   0.56035   1.000
    C305    C    0.12478   0.54440   0.56035   1.000
    C306    C    0.62478   0.04441   0.56035   1.000
    C307    C    0.62478   0.54440   0.56035   1.000
    C308    C    0.15282   0.04563   0.50273   1.000
    C309    C    0.15282   0.54562   0.50273   1.000
    C310    C    0.65281   0.04561   0.50273   1.000
    C311    C    0.65281   0.54561   0.50273   1.000
    C312    C    0.45566   0.37518   0.93973   1.000
    C313    C    0.45566   0.87517   0.93970   1.000
    C314    C    0.95566   0.37518   0.93973   1.000
    C315    C    0.95566   0.87517   0.93973   1.000
    C316    C    0.45431   0.34712   0.99734   1.000
    C317    C    0.45431   0.84711   0.99734   1.000
    C318    C    0.95431   0.34711   0.99734   1.000
    C319    C    0.95431   0.84710   0.99734   1.000
    C320    C    0.12471   0.08045   0.27305   1.000
    C321    C    0.12471   0.58043   0.27305   1.000
    C322    C    0.62471   0.08044   0.27305   1.000
    C323    C    0.62471   0.58043   0.27305   1.000
    C324    C    0.15289   0.10706   0.33067   1.000
    C325    C    0.15289   0.60705   0.33060   1.000
    C326    C    0.65289   0.10705   0.33067   1.000
    C327    C    0.65289   0.60704   0.33067   1.000
    C328    C    0.41978   0.04414   0.60635   1.000
    C329    C    0.41978   0.54413   0.60635   1.000
    C330    C    0.91978   0.04413   0.60635   1.000
    C331    C    0.91978   0.54412   0.60635   1.000
    C332    C    0.39310   0.04559   0.66397   1.000
    C333    C    0.39310   0.54557   0.66397   1.000
    C334    C    0.89310   0.04558   0.66397   1.000
    C335    C    0.89310   0.54557   0.66397   1.000
    C336    C    0.04440   0.12481   0.43967   1.000
    C337    C    0.04439   0.62480   0.43967   1.000
    C338    C    0.54440   0.12481   0.43960   1.000
    C339    C    0.54439   0.62479   0.43967   1.000
    C340    C    0.04562   0.15285   0.49729   1.000
    C341    C    0.04562   0.65284   0.49720   1.000
    C342    C    0.54562   0.15285   0.49728   1.000
    C343    C    0.54562   0.65284   0.49728   1.000
    C344    C    0.37538   0.41968   0.77301   1.000
    C345    C    0.37538   0.91967   0.77301   1.000
    C346    C    0.87538   0.41968   0.77301   1.000
    C347    C    0.87538   0.91966   0.77301   1.000
    C348    C    0.34723   0.39297   0.83062   1.000
    C349    C    0.34723   0.89296   0.83062   1.000
    C350    C    0.84723   0.39297   0.83062   1.000
    C351    C    0.84723   0.89295   0.83062   1.000
    C352    C    0.08021   0.45594   0.10626   1.000
    C353    C    0.08022   0.95593   0.10626   1.000
    C354    C    0.58022   0.45594   0.10620   1.000
    C355    C    0.58021   0.95593   0.10626   1.000
    C356    C    0.10700   0.45465   0.16387   1.000
    C357    C    0.10701   0.95464   0.16387   1.000
    C358    C    0.60701   0.45465   0.16387   1.000
    C359    C    0.60700   0.95464   0.16387   1.000
    O360    O    0.81425   0.95641   0.00412   1.000
    O361    O    0.86117   0.95496   0.03015   1.000
    O362    O    0.87803   0.95430   0.95835   1.000
    O363    O    0.81425   0.45642   0.00410   1.000
    O364    O    0.86117   0.45497   0.03010   1.000
    O365    O    0.87803   0.45431   0.95835   1.000
    O366    O    0.31425   0.95642   0.00412   1.000
    O367    O    0.36117   0.95497   0.03015   1.000
    O368    O    0.37803   0.95430   0.95835   1.000
    O369    O    0.31425   0.45642   0.00412   1.000
    O370    O    0.36117   0.45498   0.03010   1.000
    O371    O    0.37803   0.45431   0.95835   1.000
    O372    O    0.77289   0.46007   0.03915   1.000
    O373    O    0.76554   0.45878   0.98800   1.000
    O374    O    0.27289   0.46007   0.03921   1.000
    O375    O    0.26554   0.45878   0.98805   1.000
    O376    O    0.27290   0.96007   0.03921   1.000
    O377    O    0.26554   0.95878   0.98805   1.000
    O378    O    0.77289   0.96006   0.03921   1.000
    O379    O    0.76554   0.95877   0.98805   1.000
    O380    O    0.62823   0.45938   0.04127   1.000
    O381    O    0.62823   0.95938   0.04127   1.000
    O382    O    0.12823   0.95938   0.04127   1.000
    O383    O    0.12824   0.45939   0.04127   1.000
    O384    O    0.45882   0.26553   0.01190   1.000
    O385    O    0.45882   0.76553   0.01196   1.000
    O386    O    0.95882   0.76552   0.01197   1.000
    O387    O    0.95882   0.26553   0.01197   1.000
    O388    O    0.41477   0.43227   0.07176   1.000
    O389    O    0.35043   0.45762   0.08055   1.000
    O390    O    0.91477   0.43227   0.07176   1.000
    O391    O    0.85043   0.45762   0.08055   1.000
    O392    O    0.91477   0.93226   0.07180   1.000
    O393    O    0.85042   0.95761   0.08059   1.000
    O394    O    0.41477   0.93226   0.07180   1.000
    O395    O    0.35043   0.95761   0.08059   1.000
    O396    O    0.66523   0.96069   0.08096   1.000
    O397    O    0.60691   0.95781   0.08594   1.000
    O398    O    0.66523   0.46070   0.08096   1.000
    O399    O    0.60691   0.45782   0.08591   1.000
    O400    O    0.16523   0.96069   0.08096   1.000
    O401    O    0.10691   0.95782   0.08594   1.000
    O402    O    0.16523   0.46070   0.08096   1.000
    O403    O    0.10691   0.45782   0.08594   1.000
    O404    O    0.73064   0.46165   0.08320   1.000
    O405    O    0.79503   0.46059   0.08550   1.000
    O406    O    0.73063   0.96163   0.08324   1.000
    O407    O    0.79503   0.96058   0.08554   1.000
    O408    O    0.23064   0.46165   0.08324   1.000
    O409    O    0.29503   0.46059   0.08554   1.000
    O410    O    0.23064   0.96164   0.08324   1.000
    O411    O    0.29503   0.96059   0.08554   1.000
    O412    O    0.01727   0.93240   0.09479   1.000
    O413    O    0.92364   0.87804   0.12635   1.000
    O414    O    0.95432   0.87799   0.04033   1.000
    O415    O    0.01727   0.43241   0.09479   1.000
    O416    O    0.92364   0.37805   0.12635   1.000
    O417    O    0.95432   0.37800   0.04033   1.000
    O418    O    0.51727   0.93241   0.09479   1.000
    O419    O    0.42364   0.87804   0.12635   1.000
    O420    O    0.45432   0.87800   0.04033   1.000
    O421    O    0.51727   0.43242   0.09476   1.000
    O422    O    0.42365   0.37805   0.12635   1.000
    O423    O    0.45432   0.37801   0.04033   1.000
    O424    O    0.68691   0.46024   0.12728   1.000
    O425    O    0.18691   0.46024   0.12728   1.000
    O426    O    0.18691   0.96024   0.12728   1.000
    O427    O    0.68690   0.96023   0.12728   1.000
    O428    O    0.83068   0.95927   0.12495   1.000
    O429    O    0.83069   0.45928   0.12524   1.000
    O430    O    0.33069   0.45929   0.12524   1.000
    O431    O    0.33068   0.95927   0.12495   1.000
    O432    O    0.59361   0.45529   0.13504   1.000
    O433    O    0.09361   0.95528   0.13507   1.000
    O434    O    0.59361   0.95528   0.13507   1.000
    O435    O    0.09361   0.45529   0.13507   1.000
    O436    O    0.80708   0.76549   0.15482   1.000
    O437    O    0.30708   0.26551   0.15485   1.000
    O438    O    0.30708   0.76550   0.15485   1.000
    O439    O    0.80708   0.26550   0.15485   1.000
    O440    O    0.14199   0.45672   0.16106   1.000
    O441    O    0.19304   0.45904   0.17844   1.000
    O442    O    0.14199   0.95672   0.16106   1.000
    O443    O    0.19304   0.95904   0.17844   1.000
    O444    O    0.64199   0.45672   0.16106   1.000
    O445    O    0.69304   0.45905   0.17844   1.000
    O446    O    0.64198   0.95671   0.16106   1.000
    O447    O    0.69304   0.95903   0.17844   1.000
    O448    O    0.57623   0.95465   0.20692   1.000
    O449    O    0.57623   0.45467   0.20692   1.000
    O450    O    0.07623   0.95466   0.20689   1.000
    O451    O    0.07623   0.45466   0.20689   1.000
    O452    O    0.35803   0.81428   0.17221   1.000
    O453    O    0.40632   0.86127   0.19470   1.000
    O454    O    0.35803   0.31429   0.17221   1.000
    O455    O    0.40632   0.36128   0.19820   1.000
    O456    O    0.85803   0.31428   0.17221   1.000
    O457    O    0.90632   0.36128   0.19820   1.000
    O458    O    0.85803   0.81427   0.17221   1.000
    O459    O    0.90632   0.86127   0.19820   1.000
    O460    O    0.31317   0.27290   0.20601   1.000
    O461    O    0.31317   0.77289   0.20601   1.000
    O462    O    0.81317   0.27289   0.20601   1.000
    O463    O    0.81317   0.77289   0.20601   1.000
    O464    O    0.66926   0.12848   0.20808   1.000
    O465    O    0.16926   0.62847   0.20807   1.000
    O466    O    0.66926   0.62848   0.20808   1.000
    O467    O    0.16927   0.12849   0.20808   1.000
    O468    O    0.48257   0.91500   0.23499   1.000
    O469    O    0.39302   0.85053   0.24383   1.000
    O470    O    0.48257   0.41501   0.23849   1.000
    O471    O    0.39303   0.35054   0.24733   1.000
    O472    O    0.98257   0.41501   0.23845   1.000
    O473    O    0.89302   0.35054   0.24733   1.000
    O474    O    0.98257   0.91500   0.23845   1.000
    O475    O    0.89302   0.85053   0.24733   1.000
    O476    O    0.20501   0.66532   0.24776   1.000
    O477    O    0.14953   0.60711   0.25273   1.000
    O478    O    0.70501   0.66532   0.24778   1.000
    O479    O    0.64953   0.60711   0.25274   1.000
    O480    O    0.70501   0.16533   0.24778   1.000
    O481    O    0.64953   0.10712   0.25274   1.000
    O482    O    0.20501   0.16534   0.24777   1.000
    O483    O    0.14953   0.10712   0.25274   1.000
    O484    O    0.26945   0.73064   0.25005   1.000
    O485    O    0.33480   0.79507   0.25232   1.000
    O486    O    0.76945   0.73064   0.25006   1.000
    O487    O    0.83480   0.79507   0.25232   1.000
    O488    O    0.76945   0.23065   0.25006   1.000
    O489    O    0.83480   0.29508   0.25232   1.000
    O490    O    0.26945   0.23065   0.25005   1.000
    O491    O    0.33480   0.29509   0.25232   1.000
    O492    O    0.08508   0.01756   0.26148   1.000
    O493    O    0.04551   0.92389   0.29297   1.000
    O494    O    0.08508   0.51756   0.26148   1.000
    O495    O    0.04551   0.42390   0.29297   1.000
    O496    O    0.58508   0.51756   0.26151   1.000
    O497    O    0.54551   0.42390   0.29301   1.000
    O498    O    0.58508   0.01755   0.26151   1.000
    O499    O    0.54550   0.92388   0.29301   1.000
    O500    O    0.22721   0.18690   0.29409   1.000
    O501    O    0.22720   0.68688   0.29406   1.000
    O502    O    0.72721   0.18689   0.29410   1.000
    O503    O    0.72721   0.68688   0.29410   1.000
    O504    O    0.87172   0.83079   0.29200   1.000
    O505    O    0.87172   0.33080   0.29200   1.000
    O506    O    0.37172   0.83079   0.29200   1.000
    O507    O    0.37173   0.33080   0.29200   1.000
    O508    O    0.13880   0.09375   0.30186   1.000
    O509    O    0.13880   0.59374   0.30183   1.000
    O510    O    0.63880   0.09375   0.30186   1.000
    O511    O    0.63880   0.59374   0.30186   1.000
    O512    O    0.04128   0.80714   0.32142   1.000
    O513    O    0.54128   0.30714   0.32142   1.000
    O514    O    0.54128   0.80713   0.32142   1.000
    O515    O    0.04127   0.30714   0.32145   1.000
    O516    O    0.18581   0.64198   0.32780   1.000
    O517    O    0.23461   0.69290   0.34523   1.000
    O518    O    0.18582   0.14199   0.32787   1.000
    O519    O    0.23462   0.19291   0.34526   1.000
    O520    O    0.68582   0.64197   0.32787   1.000
    O521    O    0.73462   0.69289   0.34526   1.000
    O522    O    0.68582   0.14198   0.32787   1.000
    O523    O    0.73462   0.19290   0.34526   1.000
    O524    O    0.12201   0.57634   0.37366   1.000
    O525    O    0.62201   0.57634   0.37369   1.000
    O526    O    0.62201   0.07634   0.37369   1.000
    O527    O    0.12201   0.07635   0.37369   1.000
    O528    O    0.04352   0.85813   0.33884   1.000
    O529    O    0.04483   0.90644   0.36486   1.000
    O530    O    0.04351   0.35814   0.33884   1.000
    O531    O    0.04484   0.40645   0.36486   1.000
    O532    O    0.54352   0.35814   0.33882   1.000
    O533    O    0.54484   0.40645   0.36485   1.000
    O534    O    0.54351   0.85813   0.33882   1.000
    O535    O    0.54483   0.90644   0.36485   1.000
    O536    O    0.53994   0.81316   0.37259   1.000
    O537    O    0.53994   0.31318   0.37259   1.000
    O538    O    0.03994   0.31318   0.37261   1.000
    O539    O    0.03994   0.81317   0.37261   1.000
    O540    O    0.54092   0.66936   0.37467   1.000
    O541    O    0.54092   0.16937   0.37468   1.000
    O542    O    0.04092   0.66937   0.37468   1.000
    O543    O    0.04092   0.16938   0.37468   1.000
    O544    O    0.56762   0.48271   0.40519   1.000
    O545    O    0.54217   0.39305   0.41397   1.000
    O546    O    0.56762   0.98271   0.40519   1.000
    O547    O    0.54216   0.89304   0.41397   1.000
    O548    O    0.06762   0.48271   0.40519   1.000
    O549    O    0.04217   0.39306   0.41398   1.000
    O550    O    0.06762   0.98271   0.40519   1.000
    O551    O    0.04216   0.89305   0.41398   1.000
    O552    O    0.53951   0.70498   0.41435   1.000
    O553    O    0.54249   0.64960   0.41934   1.000
    O554    O    0.53951   0.20499   0.41436   1.000
    O555    O    0.54249   0.14961   0.41931   1.000
    O556    O    0.03951   0.70499   0.41437   1.000
    O557    O    0.04249   0.64960   0.41935   1.000
    O558    O    0.03951   0.20500   0.41437   1.000
    O559    O    0.04249   0.14961   0.41935   1.000
    O560    O    0.53842   0.76937   0.41664   1.000
    O561    O    0.53931   0.83474   0.41893   1.000
    O562    O    0.53843   0.26938   0.41664   1.000
    O563    O    0.53932   0.33475   0.41893   1.000
    O564    O    0.03842   0.76938   0.41665   1.000
    O565    O    0.03931   0.83474   0.41893   1.000
    O566    O    0.03843   0.26939   0.41665   1.000
    O567    O    0.03932   0.33476   0.41893   1.000
    O568    O    0.56776   0.58521   0.42819   1.000
    O569    O    0.62197   0.54562   0.45972   1.000
    O570    O    0.56776   0.08522   0.42816   1.000
    O571    O    0.62197   0.04563   0.45972   1.000
    O572    O    0.06776   0.58522   0.42819   1.000
    O573    O    0.12197   0.54563   0.45972   1.000
    O574    O    0.06776   0.08523   0.42819   1.000
    O575    O    0.12197   0.04564   0.45972   1.000
    O576    O    0.53989   0.72708   0.46068   1.000
    O577    O    0.53990   0.22709   0.46068   1.000
    O578    O    0.03990   0.22709   0.46069   1.000
    O579    O    0.03989   0.72708   0.46069   1.000
    O580    O    0.04050   0.37166   0.45863   1.000
    O581    O    0.04050   0.87165   0.45863   1.000
    O582    O    0.54049   0.87164   0.45863   1.000
    O583    O    0.54050   0.37165   0.45863   1.000
    O584    O    0.54501   0.13883   0.46844   1.000
    O585    O    0.04501   0.13883   0.46848   1.000
    O586    O    0.04501   0.63882   0.46844   1.000
    O587    O    0.54501   0.63882   0.46848   1.000
    O588    O    0.73440   0.54110   0.48817   1.000
    O589    O    0.73440   0.04110   0.48817   1.000
    O590    O    0.23441   0.54111   0.48817   1.000
    O591    O    0.23441   0.04112   0.48817   1.000
    O592    O    0.54348   0.68571   0.49447   1.000
    O593    O    0.54107   0.73440   0.51185   1.000
    O594    O    0.54348   0.18572   0.49447   1.000
    O595    O    0.54107   0.23441   0.51185   1.000
    O596    O    0.04348   0.68572   0.49443   1.000
    O597    O    0.04107   0.73440   0.51185   1.000
    O598    O    0.04349   0.18573   0.49448   1.000
    O599    O    0.04107   0.23441   0.51185   1.000
    O600    O    0.04563   0.62200   0.54025   1.000
    O601    O    0.54563   0.12200   0.54029   1.000
    O602    O    0.54563   0.62199   0.54029   1.000
    O603    O    0.04563   0.12201   0.54030   1.000
    O604    O    0.68570   0.04350   0.50555   1.000
    O605    O    0.63879   0.04501   0.53154   1.000
    O606    O    0.18571   0.04351   0.50555   1.000
    O607    O    0.13880   0.04502   0.53154   1.000
    O608    O    0.18571   0.54350   0.50555   1.000
    O609    O    0.13880   0.54501   0.53154   1.000
    O610    O    0.68570   0.54349   0.50555   1.000
    O611    O    0.63879   0.54500   0.53154   1.000
    O612    O    0.72708   0.53992   0.53934   1.000
    O613    O    0.72708   0.03992   0.53934   1.000
    O614    O    0.22708   0.53993   0.53934   1.000
    O615    O    0.22708   0.03994   0.53934   1.000
    O616    O    0.87166   0.04056   0.54138   1.000
    O617    O    0.37166   0.04056   0.54138   1.000
    O618    O    0.37166   0.54056   0.54138   1.000
    O619    O    0.87166   0.54055   0.54138   1.000
    O620    O    0.58521   0.56777   0.57183   1.000
    O621    O    0.64957   0.54246   0.58067   1.000
    O622    O    0.58521   0.06779   0.57183   1.000
    O623    O    0.64957   0.04248   0.58067   1.000
    O624    O    0.08521   0.56778   0.57183   1.000
    O625    O    0.14957   0.54247   0.58067   1.000
    O626    O    0.08521   0.06779   0.57183   1.000
    O627    O    0.14957   0.04248   0.58067   1.000
    O628    O    0.33474   0.53935   0.58109   1.000
    O629    O    0.39305   0.54221   0.58604   1.000
    O630    O    0.83474   0.03935   0.58109   1.000
    O631    O    0.89305   0.04221   0.58604   1.000
    O632    O    0.83474   0.53934   0.58109   1.000
    O633    O    0.89305   0.54220   0.58604   1.000
    O634    O    0.33475   0.03936   0.58109   1.000
    O635    O    0.39306   0.04222   0.58604   1.000
    O636    O    0.26936   0.03844   0.58338   1.000
    O637    O    0.20496   0.03951   0.58565   1.000
    O638    O    0.76936   0.53843   0.58338   1.000
    O639    O    0.70496   0.53949   0.58565   1.000
    O640    O    0.76936   0.03844   0.58338   1.000
    O641    O    0.70496   0.03950   0.58565   1.000
    O642    O    0.26936   0.53843   0.58338   1.000
    O643    O    0.20496   0.53950   0.58565   1.000
    O644    O    0.98271   0.06765   0.59483   1.000
    O645    O    0.07635   0.12204   0.62632   1.000
    O646    O    0.98271   0.56764   0.59483   1.000
    O647    O    0.07635   0.62203   0.62632   1.000
    O648    O    0.48271   0.06765   0.59483   1.000
    O649    O    0.57635   0.12204   0.62632   1.000
    O650    O    0.48271   0.56764   0.59483   1.000
    O651    O    0.57635   0.62203   0.62632   1.000
    O652    O    0.31315   0.03994   0.62741   1.000
    O653    O    0.31315   0.53992   0.62741   1.000
    O654    O    0.81315   0.03993   0.62741   1.000
    O655    O    0.81315   0.53992   0.62741   1.000
    O656    O    0.16932   0.04089   0.62534   1.000
    O657    O    0.16932   0.54089   0.62534   1.000
    O658    O    0.66933   0.04090   0.62530   1.000
    O659    O    0.66932   0.54089   0.62530   1.000
    O660    O    0.90644   0.04486   0.63516   1.000
    O661    O    0.40644   0.54485   0.63516   1.000
    O662    O    0.40644   0.04486   0.63516   1.000
    O663    O    0.90644   0.54485   0.63516   1.000
    O664    O    0.19290   0.23466   0.65473   1.000
    O665    O    0.69290   0.73465   0.65473   1.000
    O666    O    0.19290   0.73465   0.65476   1.000
    O667    O    0.69290   0.23466   0.65473   1.000
    O668    O    0.85812   0.54351   0.66118   1.000
    O669    O    0.80710   0.54124   0.67858   1.000
    O670    O    0.85812   0.04351   0.66118   1.000
    O671    O    0.80710   0.04125   0.67858   1.000
    O672    O    0.35812   0.54351   0.66118   1.000
    O673    O    0.30710   0.54125   0.67858   1.000
    O674    O    0.35812   0.04352   0.66118   1.000
    O675    O    0.30711   0.04126   0.67858   1.000
    O676    O    0.42389   0.04552   0.70700   1.000
    O677    O    0.42389   0.54551   0.70700   1.000
    O678    O    0.92389   0.04552   0.70700   1.000
    O679    O    0.92389   0.54551   0.70700   1.000
    O680    O    0.64199   0.18586   0.67212   1.000
    O681    O    0.59375   0.13883   0.69815   1.000
    O682    O    0.64198   0.68584   0.67215   1.000
    O683    O    0.59375   0.63882   0.69815   1.000
    O684    O    0.14199   0.18585   0.67215   1.000
    O685    O    0.09375   0.13883   0.69815   1.000
    O686    O    0.14198   0.68585   0.67215   1.000
    O687    O    0.09375   0.63882   0.69815   1.000
    O688    O    0.68689   0.22724   0.70590   1.000
    O689    O    0.18689   0.22724   0.70592   1.000
    O690    O    0.18689   0.72723   0.70592   1.000
    O691    O    0.68689   0.72723   0.70592   1.000
    O692    O    0.33081   0.87172   0.70802   1.000
    O693    O    0.83081   0.87172   0.70802   1.000
    O694    O    0.83081   0.37173   0.70802   1.000
    O695    O    0.33081   0.37173   0.70802   1.000
    O696    O    0.01756   0.08510   0.73850   1.000
    O697    O    0.10712   0.14955   0.74723   1.000
    O698    O    0.01756   0.58509   0.73850   1.000
    O699    O    0.10712   0.64954   0.74727   1.000
    O700    O    0.51756   0.08510   0.73850   1.000
    O701    O    0.60713   0.14955   0.74727   1.000
    O702    O    0.51756   0.58509   0.73850   1.000
    O703    O    0.60712   0.64954   0.74723   1.000
    O704    O    0.29509   0.83480   0.74770   1.000
    O705    O    0.35056   0.89302   0.75269   1.000
    O706    O    0.79509   0.83480   0.74770   1.000
    O707    O    0.85055   0.89301   0.75269   1.000
    O708    O    0.79509   0.33481   0.74770   1.000
    O709    O    0.85056   0.39303   0.75269   1.000
    O710    O    0.29509   0.33481   0.74770   1.000
    O711    O    0.35056   0.39303   0.75269   1.000
    O712    O    0.73066   0.26946   0.74996   1.000
    O713    O    0.66534   0.20502   0.75224   1.000
    O714    O    0.73066   0.76945   0.74996   1.000
    O715    O    0.66534   0.70501   0.75220   1.000
    O716    O    0.23066   0.76946   0.74996   1.000
    O717    O    0.16534   0.70501   0.75224   1.000
    O718    O    0.23066   0.26946   0.74996   1.000
    O719    O    0.16534   0.20502   0.75220   1.000
    O720    O    0.91503   0.48256   0.76152   1.000
    O721    O    0.95468   0.57621   0.79309   1.000
    O722    O    0.91503   0.98256   0.76152   1.000
    O723    O    0.95467   0.07622   0.79309   1.000
    O724    O    0.41503   0.48256   0.76152   1.000
    O725    O    0.45467   0.57622   0.79309   1.000
    O726    O    0.41503   0.98257   0.76152   1.000
    O727    O    0.45468   0.07623   0.79309   1.000
    O728    O    0.77292   0.81316   0.79401   1.000
    O729    O    0.77292   0.31317   0.79401   1.000
    O730    O    0.27292   0.81317   0.79401   1.000
    O731    O    0.27292   0.31317   0.79401   1.000
    O732    O    0.12849   0.16927   0.79189   1.000
    O733    O    0.62848   0.66926   0.79189   1.000
    O734    O    0.12849   0.66926   0.79193   1.000
    O735    O    0.62849   0.16927   0.79193   1.000
    O736    O    0.36130   0.90631   0.80182   1.000
    O737    O    0.86131   0.40632   0.80182   1.000
    O738    O    0.86130   0.90631   0.80182   1.000
    O739    O    0.36130   0.40632   0.80182   1.000
    O740    O    0.45902   0.19300   0.82157   1.000
    O741    O    0.45902   0.69299   0.82157   1.000
    O742    O    0.95902   0.69299   0.82154   1.000
    O743    O    0.95902   0.19300   0.82157   1.000
    O744    O    0.31431   0.35804   0.82780   1.000
    O745    O    0.26554   0.30708   0.84517   1.000
    O746    O    0.31431   0.85803   0.82780   1.000
    O747    O    0.26553   0.80707   0.84517   1.000
    O748    O    0.81431   0.35803   0.82780   1.000
    O749    O    0.76554   0.30708   0.84517   1.000
    O750    O    0.81431   0.85802   0.82780   1.000
    O751    O    0.76553   0.80707   0.84517   1.000
    O752    O    0.87807   0.92363   0.87366   1.000
    O753    O    0.87808   0.42364   0.87366   1.000
    O754    O    0.37807   0.92364   0.87366   1.000
    O755    O    0.37808   0.42364   0.87366   1.000
    O756    O    0.95672   0.14196   0.83895   1.000
    O757    O    0.95531   0.09359   0.86495   1.000
    O758    O    0.95672   0.64195   0.83892   1.000
    O759    O    0.95531   0.59359   0.86495   1.000
    O760    O    0.45672   0.64195   0.83895   1.000
    O761    O    0.45531   0.59359   0.86492   1.000
    O762    O    0.45672   0.14197   0.83895   1.000
    O763    O    0.45531   0.09360   0.86492   1.000
    O764    O    0.96023   0.68686   0.87271   1.000
    O765    O    0.96023   0.18687   0.87274   1.000
    O766    O    0.46023   0.68687   0.87274   1.000
    O767    O    0.46023   0.18688   0.87273   1.000
    O768    O    0.45926   0.83063   0.87476   1.000
    O769    O    0.45927   0.33065   0.87477   1.000
    O770    O    0.95927   0.33064   0.87477   1.000
    O771    O    0.95926   0.83063   0.87477   1.000
    O772    O    0.43244   0.01726   0.90520   1.000
    O773    O    0.45787   0.10691   0.91385   1.000
    O774    O    0.43244   0.51726   0.90520   1.000
    O775    O    0.45786   0.60690   0.91405   1.000
    O776    O    0.93244   0.01725   0.90523   1.000
    O777    O    0.95787   0.10691   0.91408   1.000
    O778    O    0.93244   0.51726   0.90523   1.000
    O779    O    0.95786   0.60690   0.91408   1.000
    O780    O    0.46058   0.79499   0.91446   1.000
    O781    O    0.45760   0.85037   0.91941   1.000
    O782    O    0.96059   0.79499   0.91448   1.000
    O783    O    0.95761   0.85037   0.91943   1.000
    O784    O    0.96059   0.29500   0.91448   1.000
    O785    O    0.95761   0.35038   0.91943   1.000
    O786    O    0.46059   0.29500   0.91448   1.000
    O787    O    0.45761   0.35039   0.91943   1.000
    O788    O    0.46166   0.23061   0.91677   1.000
    O789    O    0.46073   0.16522   0.91885   1.000
    O790    O    0.46165   0.73060   0.91675   1.000
    O791    O    0.46073   0.66521   0.91905   1.000
    O792    O    0.96165   0.23061   0.91678   1.000
    O793    O    0.96073   0.16521   0.91906   1.000
    O794    O    0.96165   0.73060   0.91678   1.000
    O795    O    0.96073   0.66520   0.91906   1.000
    O796    O    0.93229   0.91474   0.92822   1.000
    O797    O    0.43229   0.41475   0.92822   1.000
    O798    O    0.43229   0.91474   0.92820   1.000
    O799    O    0.93229   0.41475   0.92822   1.000
    O800    O    0.46010   0.77286   0.96079   1.000
    O801    O    0.46010   0.27288   0.96077   1.000
    O802    O    0.96010   0.27287   0.96081   1.000
    O803    O    0.96010   0.77286   0.96081   1.000
    O804    O    0.45944   0.12824   0.95855   1.000
    O805    O    0.45943   0.62822   0.95874   1.000
    O806    O    0.95944   0.62822   0.95875   1.000
    O807    O    0.95944   0.12823   0.95875   1.000
    O808    O    0.45498   0.86114   0.96852   1.000
    O809    O    0.95498   0.86113   0.96854   1.000
    O810    O    0.45499   0.36115   0.96854   1.000
    O811    O    0.95499   0.36114   0.96854   1.000
    O812    O    0.45645   0.31423   0.99452   1.000
    O813    O    0.45645   0.81422   0.99456   1.000
    O814    O    0.95645   0.31423   0.99456   1.000
    O815    O    0.95645   0.81422   0.99456   1.000
loop_
    _geom_bond_atom_site_label_1
    _geom_bond_atom_site_label_2
    _geom_bond_distance
    _geom_bond_site_symmetry_2
    _ccdc_geom_bond_type
    C287   O360      0.67886      .   S
    C155   O360      0.67886      .   S
    C287   O361      0.71355      .   S
    C283   O361      0.71355      .   S
    C287   O362      1.09777  1_554   S
    C19    O362      1.09777      .   S
    C286   O363      0.67880      .   S
    C154   O363      0.67880      .   S
    C286   O364      0.71264      .   S
    C282   O364      0.71264      .   S
    C286   O365      1.09778  1_554   S
    C18    O365      1.09778      .   S
    C285   O366      0.67886      .   S
    C153   O366      0.67886      .   S
    C285   O367      0.71356      .   S
    C281   O367      0.71356      .   S
    C285   O368      1.09777  1_554   S
    C17    O368      1.09777      .   S
    C284   O369      0.67887      .   S
    C152   O369      0.67887      .   S
    C284   O370      0.71264      .   S
    C280   O370      0.71264      .   S
    C284   O371      1.09776  1_554   S
    C16    O371      1.09776      .   S
    C154   O372      0.70224      .   S
    C146   O372      0.70224      .   S
    C154   O373      0.54316  1_554   S
    C46    O373      0.54316      .   S
    C152   O374      0.70266      .   S
    C144   O374      0.70266      .   S
    C152   O375      0.54299  1_554   S
    C44    O375      0.54299      .   S
    C153   O376      0.70266      .   S
    C145   O376      0.70266      .   S
    C153   O377      0.54299  1_554   S
    C45    O377      0.54299      .   S
    C155   O378      0.70267      .   S
    C147   O378      0.70267      .   S
    C155   O379      0.54299  1_554   S
    C47    O379      0.54299      .   S
    C114   O380      0.54299      .   S
    C258   O380      0.54299      .   S
    C115   O381      0.54299      .   S
    C259   O381      0.54299      .   S
    C113   O382      0.54299      .   S
    C257   O382      0.54299      .   S
    C112   O383      0.54299      .   S
    C256   O383      0.54299      .   S
    C76    O384      0.54311      .   S
    C200   O384      0.54311  1_556   S
    C77    O385      0.54293      .   S
    C201   O385      0.54293  1_556   S
    C79    O386      0.54293      .   S
    C203   O386      0.54293  1_556   S
    C78    O387      0.54293      .   S
    C202   O387      0.54293  1_556   S
    C280   O388      1.11929      .   S
    C8     O388      1.11929      .   S
    C280   O389      0.67792      .   S
    C148   O389      0.67792      .   S
    C282   O390      1.11929      .   S
    C10    O390      1.11929      .   S
    C282   O391      0.67793      .   S
    C150   O391      0.67793      .   S
    C283   O392      1.11907      .   S
    C11    O392      1.11907      .   S
    C283   O393      0.67727      .   S
    C151   O393      0.67727      .   S
    C281   O394      1.11907      .   S
    C9     O394      1.11907      .   S
    C281   O395      0.67728      .   S
    C149   O395      0.67728      .   S
    C259   O396      0.70173      .   S
    C255   O396      0.70173      .   S
    C259   O397      0.67734      .   S
    C355   O397      0.67734      .   S
    C258   O398      0.70173      .   S
    C254   O398      0.70173      .   S
    C258   O399      0.67690      .   S
    C354   O399      0.67690      .   S
    C257   O400      0.70173      .   S
    C253   O400      0.70173      .   S
    C257   O401      0.67733      .   S
    C353   O401      0.67733      .   S
    C256   O402      0.70173      .   S
    C252   O402      0.70173      .   S
    C256   O403      0.67734      .   S
    C352   O403      0.67734      .   S
    C146   O404      0.72807      .   S
    C254   O404      0.72807      .   S
    C146   O405      0.70213      .   S
    C150   O405      0.70213      .   S
    C147   O406      0.72773      .   S
    C255   O406      0.72773      .   S
    C147   O407      0.70171      .   S
    C151   O407      0.70171      .   S
    C144   O408      0.72772      .   S
    C252   O408      0.72772      .   S
    C144   O409      0.70171      .   S
    C148   O409      0.70171      .   S
    C145   O410      0.72772      .   S
    C253   O410      0.72772      .   S
    C145   O411      0.70171      .   S
    C149   O411      0.70171      .   S
    C11    O412      1.11915  1_655   S
    C353   O412      1.11915      .   S
    C11    O413      1.12206      .   S
    C295   O413      1.12206      .   S
    C11    O414      1.12216      .   S
    C319   O414      1.12216  1_556   S
    C10    O415      1.11914  1_655   S
    C352   O415      1.11914      .   S
    C10    O416      1.12206      .   S
    C294   O416      1.12206      .   S
    C10    O417      1.12216      .   S
    C318   O417      1.12216  1_556   S
    C9     O418      1.11913      .   S
    C355   O418      1.11913      .   S
    C9     O419      1.12207      .   S
    C293   O419      1.12207      .   S
    C9     O420      1.12216      .   S
    C317   O420      1.12216  1_556   S
    C8     O421      1.11899      .   S
    C354   O421      1.11899      .   S
    C8     O422      1.12206      .   S
    C292   O422      1.12206      .   S
    C8     O423      1.12216      .   S
    C316   O423      1.12216  1_556   S
    C254   O424      0.70264      .   S
    C262   O424      0.70264      .   S
    C252   O425      0.70264      .   S
    C260   O425      0.70264      .   S
    C253   O426      0.70264      .   S
    C261   O426      0.70264      .   S
    C255   O427      0.70264      .   S
    C263   O427      0.70264      .   S
    C151   O428      0.53657      .   S
    C43    O428      0.53657      .   S
    C150   O429      0.54291      .   S
    C42    O429      0.54291      .   S
    C148   O430      0.54291      .   S
    C40    O430      0.54291      .   S
    C149   O431      0.53657      .   S
    C41    O431      0.53657      .   S
    C354   O432      0.68723      .   S
    C358   O432      0.68723      .   S
    C353   O433      0.68662      .   S
    C357   O433      0.68662      .   S
    C355   O434      0.68663      .   S
    C359   O434      0.68663      .   S
    C352   O435      0.68663      .   S
    C356   O435      0.68663      .   S
    C55    O436      0.54366      .   S
    C167   O436      0.54366      .   S
    C52    O437      0.54312      .   S
    C164   O437      0.54312      .   S
    C53    O438      0.54312      .   S
    C165   O438      0.54312      .   S
    C54    O439      0.54312      .   S
    C166   O439      0.54312      .   S
    C260   O440      0.67560      .   S
    C356   O440      0.67560      .   S
    C260   O441      0.54309      .   S
    C116   O441      0.54309      .   S
    C261   O442      0.67560      .   S
    C357   O442      0.67560      .   S
    C261   O443      0.54309      .   S
    C117   O443      0.54309      .   S
    C262   O444      0.67560      .   S
    C358   O444      0.67560      .   S
    C262   O445      0.54309      .   S
    C118   O445      0.54309      .   S
    C263   O446      0.67560      .   S
    C359   O446      0.67560      .   S
    C263   O447      0.54308      .   S
    C119   O447      0.54308      .   S
    C359   O448      1.12226      .   S
    C15    O448      1.12226      .   S
    C358   O449      1.12225      .   S
    C14    O449      1.12225      .   S
    C357   O450      1.12161      .   S
    C13    O450      1.12161      .   S
    C356   O451      1.12162      .   S
    C12    O451      1.12162      .   S
    C293   O452      0.67561      .   S
    C165   O452      0.67561      .   S
    C293   O453      0.61711      .   S
    C289   O453      0.61711      .   S
    C292   O454      0.67561      .   S
    C164   O454      0.67561      .   S
    C292   O455      0.68672      .   S
    C288   O455      0.68672      .   S
    C294   O456      0.67561      .   S
    C166   O456      0.67561      .   S
    C294   O457      0.68673      .   S
    C290   O457      0.68673      .   S
    C295   O458      0.67561      .   S
    C167   O458      0.67561      .   S
    C295   O459      0.68673      .   S
    C291   O459      0.68673      .   S
    C164   O460      0.70271      .   S
    C156   O460      0.70271      .   S
    C165   O461      0.70261      .   S
    C157   O461      0.70261      .   S
    C166   O462      0.70271      .   S
    C158   O462      0.70271      .   S
    C167   O463      0.70271      .   S
    C159   O463      0.70271      .   S
    C82    O464      0.54295      .   S
    C210   O464      0.54295      .   S
    C81    O465      0.54262      .   S
    C209   O465      0.54262      .   S
    C83    O466      0.54295      .   S
    C211   O466      0.54295      .   S
    C80    O467      0.54295      .   S
    C208   O467      0.54295      .   S
    C289   O468      1.13891      .   S
    C15    O468      1.13891      .   S
    C289   O469      0.72995      .   S
    C161   O469      0.72995      .   S
    C288   O470      1.11926      .   S
    C14    O470      1.11926      .   S
    C288   O471      0.67731      .   S
    C160   O471      0.67731      .   S
    C290   O472      1.11910      .   S
    C12    O472      1.11910  1_455   S
    C290   O473      0.67732      .   S
    C162   O473      0.67732      .   S
    C291   O474      1.11911      .   S
    C13    O474      1.11911  1_455   S
    C291   O475      0.67732      .   S
    C163   O475      0.67732      .   S
    C209   O476      0.70186      .   S
    C205   O476      0.70186      .   S
    C209   O477      0.67754      .   S
    C321   O477      0.67754      .   S
    C211   O478      0.70175      .   S
    C207   O478      0.70175      .   S
    C211   O479      0.67733      .   S
    C323   O479      0.67733      .   S
    C210   O480      0.70175      .   S
    C206   O480      0.70175      .   S
    C210   O481      0.67733      .   S
    C322   O481      0.67733      .   S
    C208   O482      0.70159      .   S
    C204   O482      0.70159      .   S
    C208   O483      0.67733      .   S
    C320   O483      0.67733      .   S
    C157   O484      0.72773      .   S
    C205   O484      0.72773      .   S
    C157   O485      0.70177      .   S
    C161   O485      0.70177      .   S
    C159   O486      0.72773      .   S
    C207   O486      0.72773      .   S
    C159   O487      0.70172      .   S
    C163   O487      0.70172      .   S
    C158   O488      0.72772      .   S
    C206   O488      0.72772      .   S
    C158   O489      0.70172      .   S
    C162   O489      0.70172      .   S
    C156   O490      0.72760      .   S
    C204   O490      0.72760      .   S
    C156   O491      0.70172      .   S
    C160   O491      0.70172      .   S
    C13    O492      1.11970  1_565   S
    C320   O492      1.11970      .   S
    C13    O493      1.12289      .   S
    C277   O493      1.12289      .   S
    C12    O494      1.11953      .   S
    C321   O494      1.11953      .   S
    C12    O495      1.12288      .   S
    C276   O495      1.12288      .   S
    C14    O496      1.11936      .   S
    C323   O496      1.11936      .   S
    C14    O497      1.12226      .   S
    C278   O497      1.12226      .   S
    C15    O498      1.11953  1_565   S
    C322   O498      1.11953      .   S
    C15    O499      1.12226      .   S
    C279   O499      1.12226      .   S
    C204   O500      0.70294      .   S
    C212   O500      0.70294      .   S
    C205   O501      0.70199      .   S
    C213   O501      0.70199      .   S
    C206   O502      0.70263      .   S
    C214   O502      0.70263      .   S
    C207   O503      0.70263      .   S
    C215   O503      0.70263      .   S
    C163   O504      0.54291      .   S
    C51    O504      0.54291      .   S
    C162   O505      0.54291      .   S
    C50    O505      0.54291      .   S
    C161   O506      0.54291      .   S
    C49    O506      0.54291      .   S
    C160   O507      0.54291      .   S
    C48    O507      0.54291      .   S
    C320   O508      0.68672      .   S
    C324   O508      0.68672      .   S
    C321   O509      0.68602      .   S
    C325   O509      0.68602      .   S
    C322   O510      0.68672      .   S
    C326   O510      0.68672      .   S
    C323   O511      0.68672      .   S
    C327   O511      0.68672      .   S
    C37    O512      0.54353      .   S
    C141   O512      0.54353      .   S
    C38    O513      0.54281      .   S
    C142   O513      0.54281      .   S
    C39    O514      0.54281      .   S
    C143   O514      0.54281      .   S
    C36    O515      0.54308      .   S
    C140   O515      0.54308      .   S
    C213   O516      0.67562      .   S
    C325   O516      0.67562      .   S
    C213   O517      0.54369      .   S
    C85    O517      0.54369      .   S
    C212   O518      0.67562      .   S
    C324   O518      0.67562      .   S
    C212   O519      0.54306      .   S
    C84    O519      0.54306      .   S
    C215   O520      0.67563      .   S
    C327   O520      0.67563      .   S
    C215   O521      0.54306      .   S
    C87    O521      0.54306      .   S
    C214   O522      0.67563      .   S
    C326   O522      0.67563      .   S
    C214   O523      0.54306      .   S
    C86    O523      0.54306      .   S
    C325   O524      1.12267      .   S
    C5     O524      1.12267      .   S
    C327   O525      1.12204      .   S
    C7     O525      1.12204      .   S
    C326   O526      1.12204      .   S
    C6     O526      1.12204      .   S
    C324   O527      1.12203      .   S
    C4     O527      1.12203      .   S
    C277   O528      0.67560      .   S
    C141   O528      0.67560      .   S
    C277   O529      0.68677      .   S
    C273   O529      0.68677      .   S
    C276   O530      0.67560      .   S
    C140   O530      0.67560      .   S
    C276   O531      0.68677      .   S
    C272   O531      0.68677      .   S
    C278   O532      0.67556      .   S
    C142   O532      0.67556      .   S
    C278   O533      0.68667      .   S
    C274   O533      0.68667      .   S
    C279   O534      0.67557      .   S
    C143   O534      0.67557      .   S
    C279   O535      0.68667      .   S
    C275   O535      0.68667      .   S
    C143   O536      0.70307      .   S
    C135   O536      0.70307      .   S
    C142   O537      0.70307      .   S
    C134   O537      0.70307      .   S
    C140   O538      0.70265      .   S
    C132   O538      0.70265      .   S
    C141   O539      0.70265      .   S
    C133   O539      0.70265      .   S
    C99    O540      0.54266      .   S
    C235   O540      0.54266      .   S
    C98    O541      0.54288      .   S
    C234   O541      0.54288      .   S
    C97    O542      0.54298      .   S
    C233   O542      0.54298      .   S
    C96    O543      0.54299      .   S
    C232   O543      0.54299      .   S
    C274   O544      1.11910      .   S
    C7     O544      1.11910      .   S
    C274   O545      0.67736      .   S
    C138   O545      0.67736      .   S
    C275   O546      1.11929      .   S
    C6     O546      1.11929  1_545   S
    C275   O547      0.67736      .   S
    C139   O547      0.67736      .   S
    C272   O548      1.11909      .   S
    C5     O548      1.11909      .   S
    C272   O549      0.67728      .   S
    C136   O549      0.67728      .   S
    C273   O550      1.11926      .   S
    C4     O550      1.11926  1_545   S
    C273   O551      0.67729      .   S
    C137   O551      0.67729      .   S
    C235   O552      0.70184      .   S
    C231   O552      0.70184      .   S
    C235   O553      0.67754      .   S
    C339   O553      0.67754      .   S
    C234   O554      0.70174      .   S
    C230   O554      0.70174      .   S
    C234   O555      0.67689      .   S
    C338   O555      0.67689      .   S
    C233   O556      0.70174      .   S
    C229   O556      0.70174      .   S
    C233   O557      0.67733      .   S
    C337   O557      0.67733      .   S
    C232   O558      0.70173      .   S
    C228   O558      0.70173      .   S
    C232   O559      0.67734      .   S
    C336   O559      0.67734      .   S
    C135   O560      0.72769      .   S
    C231   O560      0.72769      .   S
    C135   O561      0.70172      .   S
    C139   O561      0.70172      .   S
    C134   O562      0.72771      .   S
    C230   O562      0.72771      .   S
    C134   O563      0.70172      .   S
    C138   O563      0.70172      .   S
    C133   O564      0.72774      .   S
    C229   O564      0.72774      .   S
    C133   O565      0.70172      .   S
    C137   O565      0.70172      .   S
    C132   O566      0.72774      .   S
    C228   O566      0.72774      .   S
    C132   O567      0.70172      .   S
    C136   O567      0.70172      .   S
    C7     O568      1.11920      .   S
    C339   O568      1.11920      .   S
    C7     O569      1.12215      .   S
    C311   O569      1.12215      .   S
    C6     O570      1.11901      .   S
    C338   O570      1.11901      .   S
    C6     O571      1.12215      .   S
    C310   O571      1.12215      .   S
    C5     O572      1.11919      .   S
    C337   O572      1.11919      .   S
    C5     O573      1.12217      .   S
    C309   O573      1.12217      .   S
    C4     O574      1.11918      .   S
    C336   O574      1.11918      .   S
    C4     O575      1.12217      .   S
    C308   O575      1.12217      .   S
    C231   O576      0.70273      .   S
    C239   O576      0.70273      .   S
    C230   O577      0.70273      .   S
    C238   O577      0.70273      .   S
    C228   O578      0.70263      .   S
    C236   O578      0.70263      .   S
    C229   O579      0.70263      .   S
    C237   O579      0.70263      .   S
    C136   O580      0.54294      .   S
    C32    O580      0.54294      .   S
    C137   O581      0.54295      .   S
    C33    O581      0.54295      .   S
    C139   O582      0.54294      .   S
    C35    O582      0.54294      .   S
    C138   O583      0.54294      .   S
    C34    O583      0.54294      .   S
    C338   O584      0.68733      .   S
    C342   O584      0.68733      .   S
    C336   O585      0.68673      .   S
    C340   O585      0.68673      .   S
    C337   O586      0.68582      .   S
    C341   O586      0.68582      .   S
    C339   O587      0.68663      .   S
    C343   O587      0.68663      .   S
    C71    O588      0.54313      .   S
    C191   O588      0.54313      .   S
    C70    O589      0.54313      .   S
    C190   O589      0.54313      .   S
    C69    O590      0.54313      .   S
    C189   O590      0.54313      .   S
    C68    O591      0.54313      .   S
    C188   O591      0.54313      .   S
    C239   O592      0.67563      .   S
    C343   O592      0.67563      .   S
    C239   O593      0.54305      .   S
    C103   O593      0.54305      .   S
    C238   O594      0.67563      .   S
    C342   O594      0.67563      .   S
    C238   O595      0.54305      .   S
    C102   O595      0.54305      .   S
    C237   O596      0.67555      .   S
    C341   O596      0.67555      .   S
    C237   O597      0.54314      .   S
    C101   O597      0.54314      .   S
    C236   O598      0.67563      .   S
    C340   O598      0.67563      .   S
    C236   O599      0.54314      .   S
    C100   O599      0.54314      .   S
    C341   O600      1.12289      .   S
    C21    O600      1.12289      .   S
    C342   O601      1.12214      .   S
    C22    O601      1.12214      .   S
    C343   O602      1.12215      .   S
    C23    O602      1.12215      .   S
    C340   O603      1.12207      .   S
    C20    O603      1.12207      .   S
    C310   O604      0.67563      .   S
    C190   O604      0.67563      .   S
    C310   O605      0.68672      .   S
    C306   O605      0.68672      .   S
    C308   O606      0.67563      .   S
    C188   O606      0.67563      .   S
    C308   O607      0.68673      .   S
    C304   O607      0.68673      .   S
    C309   O608      0.67563      .   S
    C189   O608      0.67563      .   S
    C309   O609      0.68672      .   S
    C305   O609      0.68672      .   S
    C311   O610      0.67563      .   S
    C191   O610      0.67563      .   S
    C311   O611      0.68672      .   S
    C307   O611      0.68672      .   S
    C191   O612      0.70263      .   S
    C183   O612      0.70263      .   S
    C190   O613      0.70263      .   S
    C182   O613      0.70263      .   S
    C189   O614      0.70263      .   S
    C181   O614      0.70263      .   S
    C188   O615      0.70263      .   S
    C180   O615      0.70263      .   S
    C90    O616      0.54294      .   S
    C222   O616      0.54294      .   S
    C88    O617      0.54294      .   S
    C220   O617      0.54294      .   S
    C89    O618      0.54294      .   S
    C221   O618      0.54294      .   S
    C91    O619      0.54294      .   S
    C223   O619      0.54294      .   S
    C307   O620      1.11909      .   S
    C23    O620      1.11909      .   S
    C307   O621      0.67732      .   S
    C187   O621      0.67732      .   S
    C306   O622      1.11909      .   S
    C22    O622      1.11909      .   S
    C306   O623      0.67733      .   S
    C186   O623      0.67733      .   S
    C305   O624      1.11909      .   S
    C21    O624      1.11909      .   S
    C305   O625      0.67732      .   S
    C185   O625      0.67732      .   S
    C304   O626      1.11908      .   S
    C20    O626      1.11908      .   S
    C304   O627      0.67734      .   S
    C184   O627      0.67734      .   S
    C221   O628      0.70177      .   S
    C217   O628      0.70177      .   S
    C221   O629      0.67736      .   S
    C329   O629      0.67736      .   S
    C222   O630      0.70176      .   S
    C218   O630      0.70176      .   S
    C222   O631      0.67737      .   S
    C330   O631      0.67737      .   S
    C223   O632      0.70176      .   S
    C219   O632      0.70176      .   S
    C223   O633      0.67737      .   S
    C331   O633      0.67737      .   S
    C220   O634      0.70177      .   S
    C216   O634      0.70177      .   S
    C220   O635      0.67737      .   S
    C328   O635      0.67737      .   S
    C180   O636      0.72774      .   S
    C216   O636      0.72774      .   S
    C180   O637      0.70173      .   S
    C184   O637      0.70173      .   S
    C183   O638      0.72774      .   S
    C219   O638      0.72774      .   S
    C183   O639      0.70174      .   S
    C187   O639      0.70174      .   S
    C182   O640      0.72774      .   S
    C218   O640      0.72774      .   S
    C182   O641      0.70173      .   S
    C186   O641      0.70173      .   S
    C181   O642      0.72774      .   S
    C217   O642      0.72774      .   S
    C181   O643      0.70173      .   S
    C185   O643      0.70173      .   S
    C20    O644      1.11918  1_455   S
    C330   O644      1.11918      .   S
    C20    O645      1.12206      .   S
    C268   O645      1.12206      .   S
    C21    O646      1.11917  1_455   S
    C331   O646      1.11917      .   S
    C21    O647      1.12206      .   S
    C269   O647      1.12206      .   S
    C22    O648      1.11915      .   S
    C328   O648      1.11915      .   S
    C22    O649      1.12207      .   S
    C270   O649      1.12207      .   S
    C23    O650      1.11916      .   S
    C329   O650      1.11916      .   S
    C23    O651      1.12206      .   S
    C271   O651      1.12206      .   S
    C216   O652      0.70265      .   S
    C224   O652      0.70265      .   S
    C217   O653      0.70265      .   S
    C225   O653      0.70265      .   S
    C218   O654      0.70265      .   S
    C226   O654      0.70265      .   S
    C219   O655      0.70265      .   S
    C227   O655      0.70265      .   S
    C184   O656      0.54288      .   S
    C64    O656      0.54288      .   S
    C185   O657      0.54288      .   S
    C65    O657      0.54288      .   S
    C186   O658      0.54202      .   S
    C66    O658      0.54202      .   S
    C187   O659      0.54202      .   S
    C67    O659      0.54202      .   S
    C330   O660      0.68666      .   S
    C334   O660      0.68666      .   S
    C329   O661      0.68667      .   S
    C333   O661      0.68667      .   S
    C328   O662      0.68667      .   S
    C332   O662      0.68667      .   S
    C331   O663      0.68666      .   S
    C335   O663      0.68666      .   S
    C28    O664      0.54371      .   S
    C128   O664      0.54371      .   S
    C31    O665      0.54370      .   S
    C131   O665      0.54370      .   S
    C29    O666      0.54317      .   S
    C129   O666      0.54317      .   S
    C30    O667      0.54272      .   S
    C130   O667      0.54272      .   S
    C227   O668      0.67561      .   S
    C335   O668      0.67561      .   S
    C227   O669      0.54307      .   S
    C95    O669      0.54307      .   S
    C226   O670      0.67561      .   S
    C334   O670      0.67561      .   S
    C226   O671      0.54307      .   S
    C94    O671      0.54307      .   S
    C225   O672      0.67560      .   S
    C333   O672      0.67560      .   S
    C225   O673      0.54308      .   S
    C93    O673      0.54308      .   S
    C224   O674      0.67560      .   S
    C332   O674      0.67560      .   S
    C224   O675      0.54307      .   S
    C92    O675      0.54307      .   S
    C332   O676      1.12229      .   S
    C0     O676      1.12229      .   S
    C333   O677      1.12229      .   S
    C1     O677      1.12229      .   S
    C334   O678      1.12229      .   S
    C2     O678      1.12229      .   S
    C335   O679      1.12230      .   S
    C3     O679      1.12230      .   S
    C270   O680      0.67558      .   S
    C130   O680      0.67558      .   S
    C270   O681      0.68673      .   S
    C266   O681      0.68673      .   S
    C271   O682      0.67562      .   S
    C131   O682      0.67562      .   S
    C271   O683      0.68673      .   S
    C267   O683      0.68673      .   S
    C268   O684      0.67562      .   S
    C128   O684      0.67562      .   S
    C268   O685      0.68673      .   S
    C264   O685      0.68673      .   S
    C269   O686      0.67563      .   S
    C129   O686      0.67563      .   S
    C269   O687      0.68673      .   S
    C265   O687      0.68673      .   S
    C130   O688      0.70315      .   S
    C122   O688      0.70315      .   S
    C128   O689      0.70262      .   S
    C120   O689      0.70262      .   S
    C129   O690      0.70262      .   S
    C121   O690      0.70262      .   S
    C131   O691      0.70262      .   S
    C123   O691      0.70262      .   S
    C105   O692      0.54290      .   S
    C245   O692      0.54290      .   S
    C107   O693      0.54290      .   S
    C247   O693      0.54290      .   S
    C106   O694      0.54290      .   S
    C246   O694      0.54290      .   S
    C104   O695      0.54290      .   S
    C244   O695      0.54290      .   S
    C264   O696      1.11931      .   S
    C2     O696      1.11931  1_655   S
    C264   O697      0.67674      .   S
    C124   O697      0.67674      .   S
    C265   O698      1.11931      .   S
    C3     O698      1.11931  1_655   S
    C265   O699      0.67731      .   S
    C125   O699      0.67731      .   S
    C266   O700      1.11929      .   S
    C0     O700      1.11929      .   S
    C266   O701      0.67731      .   S
    C126   O701      0.67731      .   S
    C267   O702      1.11929      .   S
    C1     O702      1.11929      .   S
    C267   O703      0.67673      .   S
    C127   O703      0.67673      .   S
    C245   O704      0.70175      .   S
    C241   O704      0.70175      .   S
    C245   O705      0.67734      .   S
    C345   O705      0.67734      .   S
    C247   O706      0.70175      .   S
    C243   O706      0.70175      .   S
    C247   O707      0.67734      .   S
    C347   O707      0.67734      .   S
    C246   O708      0.70176      .   S
    C242   O708      0.70176      .   S
    C246   O709      0.67734      .   S
    C346   O709      0.67734      .   S
    C244   O710      0.70174      .   S
    C240   O710      0.70174      .   S
    C244   O711      0.67735      .   S
    C344   O711      0.67735      .   S
    C122   O712      0.72773      .   S
    C242   O712      0.72773      .   S
    C122   O713      0.70172      .   S
    C126   O713      0.70172      .   S
    C123   O714      0.72773      .   S
    C243   O714      0.72773      .   S
    C123   O715      0.70130      .   S
    C127   O715      0.70130      .   S
    C121   O716      0.72773      .   S
    C241   O716      0.72773      .   S
    C121   O717      0.70172      .   S
    C125   O717      0.70172      .   S
    C120   O718      0.72774      .   S
    C240   O718      0.72774      .   S
    C120   O719      0.70130      .   S
    C124   O719      0.70130      .   S
    C3     O720      1.11933      .   S
    C346   O720      1.11933      .   S
    C3     O721      1.12223      .   S
    C303   O721      1.12223      .   S
    C2     O722      1.11949  1_545   S
    C347   O722      1.11949      .   S
    C2     O723      1.12223      .   S
    C302   O723      1.12223      .   S
    C1     O724      1.11932      .   S
    C344   O724      1.11932      .   S
    C1     O725      1.12223      .   S
    C301   O725      1.12223      .   S
    C0     O726      1.11949  1_545   S
    C345   O726      1.11949      .   S
    C0     O727      1.12223      .   S
    C300   O727      1.12223      .   S
    C243   O728      0.70262      .   S
    C251   O728      0.70262      .   S
    C242   O729      0.70261      .   S
    C250   O729      0.70261      .   S
    C241   O730      0.70262      .   S
    C249   O730      0.70262      .   S
    C240   O731      0.70262      .   S
    C248   O731      0.70262      .   S
    C124   O732      0.54381      .   S
    C24    O732      0.54381      .   S
    C127   O733      0.54381      .   S
    C27    O733      0.54381      .   S
    C125   O734      0.54295      .   S
    C25    O734      0.54295      .   S
    C126   O735      0.54295      .   S
    C26    O735      0.54295      .   S
    C345   O736      0.68672      .   S
    C349   O736      0.68672      .   S
    C346   O737      0.68671      .   S
    C350   O737      0.68671      .   S
    C347   O738      0.68672      .   S
    C351   O738      0.68672      .   S
    C344   O739      0.68671      .   S
    C348   O739      0.68671      .   S
    C60    O740      0.54309      .   S
    C176   O740      0.54309      .   S
    C61    O741      0.54308      .   S
    C177   O741      0.54308      .   S
    C63    O742      0.54255      .   S
    C179   O742      0.54255      .   S
    C62    O743      0.54308      .   S
    C178   O743      0.54308      .   S
    C248   O744      0.67562      .   S
    C348   O744      0.67562      .   S
    C248   O745      0.54310      .   S
    C108   O745      0.54310      .   S
    C249   O746      0.67562      .   S
    C349   O746      0.67562      .   S
    C249   O747      0.54310      .   S
    C109   O747      0.54310      .   S
    C250   O748      0.67563      .   S
    C350   O748      0.67563      .   S
    C250   O749      0.54310      .   S
    C110   O749      0.54310      .   S
    C251   O750      0.67562      .   S
    C351   O750      0.67562      .   S
    C251   O751      0.54310      .   S
    C111   O751      0.54310      .   S
    C351   O752      1.12205      .   S
    C19    O752      1.12205      .   S
    C350   O753      1.12205      .   S
    C18    O753      1.12205      .   S
    C349   O754      1.12205      .   S
    C17    O754      1.12205      .   S
    C348   O755      1.12205      .   S
    C16    O755      1.12205      .   S
    C302   O756      0.67560      .   S
    C178   O756      0.67560      .   S
    C302   O757      0.68673      .   S
    C298   O757      0.68673      .   S
    C303   O758      0.67553      .   S
    C179   O758      0.67553      .   S
    C303   O759      0.68673      .   S
    C299   O759      0.68673      .   S
    C301   O760      0.67559      .   S
    C177   O760      0.67559      .   S
    C301   O761      0.68612      .   S
    C297   O761      0.68612      .   S
    C300   O762      0.67559      .   S
    C176   O762      0.67559      .   S
    C300   O763      0.68613      .   S
    C296   O763      0.68613      .   S
    C179   O764      0.70338      .   S
    C171   O764      0.70338      .   S
    C178   O765      0.70275      .   S
    C170   O765      0.70275      .   S
    C177   O766      0.70265      .   S
    C169   O766      0.70265      .   S
    C176   O767      0.70254      .   S
    C168   O767      0.70254      .   S
    C73    O768      0.54313      .   S
    C197   O768      0.54313      .   S
    C72    O769      0.54291      .   S
    C196   O769      0.54291      .   S
    C74    O770      0.54291      .   S
    C198   O770      0.54291      .   S
    C75    O771      0.54291      .   S
    C199   O771      0.54291      .   S
    C296   O772      1.11940      .   S
    C17    O772      1.11940  1_565   S
    C296   O773      0.67490      .   S
    C172   O773      0.67490      .   S
    C297   O774      1.11921      .   S
    C16    O774      1.11921      .   S
    C297   O775      0.67769      .   S
    C173   O775      0.67769      .   S
    C298   O776      1.11925      .   S
    C19    O776      1.11925  1_565   S
    C298   O777      0.67735      .   S
    C174   O777      0.67735      .   S
    C299   O778      1.11907      .   S
    C18    O778      1.11907      .   S
    C299   O779      0.67733      .   S
    C175   O779      0.67733      .   S
    C197   O780      0.70155      .   S
    C193   O780      0.70155      .   S
    C197   O781      0.67712      .   S
    C313   O781      0.67712      .   S
    C199   O782      0.70176      .   S
    C195   O782      0.70176      .   S
    C199   O783      0.67735      .   S
    C315   O783      0.67735      .   S
    C198   O784      0.70176      .   S
    C194   O784      0.70176      .   S
    C198   O785      0.67734      .   S
    C314   O785      0.67734      .   S
    C196   O786      0.70176      .   S
    C192   O786      0.70176      .   S
    C196   O787      0.67734      .   S
    C312   O787      0.67734      .   S
    C168   O788      0.72781      .   S
    C192   O788      0.72781      .   S
    C168   O789      0.69975      .   S
    C172   O789      0.69975      .   S
    C169   O790      0.72760      .   S
    C193   O790      0.72760      .   S
    C169   O791      0.70174      .   S
    C173   O791      0.70174      .   S
    C170   O792      0.72773      .   S
    C194   O792      0.72773      .   S
    C170   O793      0.70173      .   S
    C174   O793      0.70173      .   S
    C171   O794      0.72773      .   S
    C195   O794      0.72773      .   S
    C171   O795      0.70174      .   S
    C175   O795      0.70174      .   S
    C19    O796      1.11917      .   S
    C315   O796      1.11917      .   S
    C16    O797      1.11918      .   S
    C312   O797      1.11918      .   S
    C17    O798      1.11910      .   S
    C313   O798      1.11910      .   S
    C18    O799      1.11917      .   S
    C314   O799      1.11917      .   S
    C193   O800      0.70298      .   S
    C201   O800      0.70298      .   S
    C192   O801      0.70182      .   S
    C200   O801      0.70182      .   S
    C194   O802      0.70266      .   S
    C202   O802      0.70266      .   S
    C195   O803      0.70266      .   S
    C203   O803      0.70266      .   S
    C172   O804      0.54719      .   S
    C56    O804      0.54719      .   S
    C173   O805      0.54299      .   S
    C57    O805      0.54299      .   S
    C175   O806      0.54289      .   S
    C59    O806      0.54289      .   S
    C174   O807      0.54289      .   S
    C58    O807      0.54289      .   S
    C313   O808      0.68677      .   S
    C317   O808      0.68677      .   S
    C315   O809      0.68648      .   S
    C319   O809      0.68648      .   S
    C312   O810      0.68648      .   S
    C316   O810      0.68648      .   S
    C314   O811      0.68647      .   S
    C318   O811      0.68647      .   S
    C200   O812      0.67578      .   S
    C316   O812      0.67578      .   S
    C201   O813      0.67570      .   S
    C317   O813      0.67570      .   S
    C202   O814      0.67569      .   S
    C318   O814      0.67569      .   S
    C203   O815      0.67569      .   S
    C319   O815      0.67569      .   S
