# CIF file generated by openbabel 2.4.90, see http://openbabel.sf.net
data_I
_chemical_name_common ''
_cell_length_a 19.791
_cell_length_b 19.792
_cell_length_c 21.892
_cell_angle_alpha 89.997
_cell_angle_beta 90.002
_cell_angle_gamma 119.953
_space_group_name_H-M_alt 'P 1'
_space_group_name_Hall 'P 1'
loop_
    _symmetry_equiv_pos_as_xyz
    x,y,z
loop_
    _atom_site_label
    _atom_site_type_symbol
    _atom_site_fract_x
    _atom_site_fract_y
    _atom_site_fract_z
    _atom_site_occupancy
    Zr0     Zr   0.45469   0.04546   0.75003   1.000
    Zr1     Zr   0.45469   0.54545   0.75003   1.000
    Zr2     Zr   0.95469   0.04546   0.75003   1.000
    Zr3     Zr   0.95469   0.54545   0.75003   1.000
    Zr4     Zr   0.09113   0.04564   0.41671   1.000
    Zr5     Zr   0.09113   0.54563   0.41671   1.000
    Zr6     Zr   0.59113   0.04564   0.41671   1.000
    Zr7     Zr   0.59113   0.54563   0.41671   1.000
    Zr8     Zr   0.45433   0.40890   0.08331   1.000
    Zr9     Zr   0.45433   0.90888   0.08331   1.000
    Zr10    Zr   0.95433   0.40889   0.08331   1.000
    Zr11    Zr   0.95433   0.90888   0.08331   1.000
    Zr12    Zr   0.04545   0.45468   0.24990   1.000
    Zr13    Zr   0.04545   0.95467   0.24990   1.000
    Zr14    Zr   0.54545   0.45468   0.24997   1.000
    Zr15    Zr   0.54545   0.95467   0.24997   1.000
    Zr16    Zr   0.40892   0.45432   0.91670   1.000
    Zr17    Zr   0.40892   0.95431   0.91670   1.000
    Zr18    Zr   0.90892   0.45432   0.91670   1.000
    Zr19    Zr   0.90892   0.95431   0.91670   1.000
    Zr20    Zr   0.04564   0.09116   0.58330   1.000
    Zr21    Zr   0.04564   0.59116   0.58330   1.000
    Zr22    Zr   0.54564   0.09116   0.58330   1.000
    Zr23    Zr   0.54564   0.59115   0.58330   1.000
    C24     C    0.95836   0.22896   0.91676   1.000
    O25     O    0.94540   0.12311   0.91100   1.000
    O26     O    0.95652   0.15259   0.85492   1.000
    O27     O    0.95634   0.30348   0.97854   1.000
    O28     O    0.94532   0.32186   0.92249   1.000
    C29     C    0.04172   0.77103   0.41665   1.000
    O30     O    0.04361   0.84746   0.35481   1.000
    O31     O    0.05467   0.87687   0.41092   1.000
    O32     O    0.05474   0.67812   0.42242   1.000
    O33     O    0.04367   0.69651   0.47845   1.000
    C34     C    0.22899   0.45834   0.08306   1.000
    O35     O    0.30351   0.45633   0.02070   1.000
    O36     O    0.32188   0.44531   0.07741   1.000
    O37     O    0.12313   0.44538   0.08892   1.000
    O38     O    0.15261   0.45650   0.14497   1.000
    C39     C    0.95835   0.72895   0.91676   1.000
    O40     O    0.95652   0.65258   0.85492   1.000
    O41     O    0.94540   0.62310   0.91099   1.000
    O42     O    0.95634   0.80347   0.97854   1.000
    O43     O    0.94532   0.82185   0.92249   1.000
    C44     C    0.27101   0.54173   0.58336   1.000
    O45     O    0.19649   0.54368   0.52154   1.000
    O46     O    0.34745   0.54362   0.64518   1.000
    O47     O    0.17811   0.55475   0.57759   1.000
    O48     O    0.37686   0.55468   0.58909   1.000
    C49     C    0.22899   0.95834   0.08302   1.000
    O50     O    0.32188   0.94530   0.07741   1.000
    O51     O    0.30351   0.95632   0.02069   1.000
    O52     O    0.12313   0.94537   0.08890   1.000
    O53     O    0.15261   0.95650   0.14495   1.000
    C54     C    0.77104   0.22905   0.25004   1.000
    O55     O    0.67806   0.12330   0.25578   1.000
    O56     O    0.87680   0.32203   0.24425   1.000
    O57     O    0.84734   0.30355   0.18820   1.000
    O58     O    0.69652   0.15270   0.31187   1.000
    C59     C    0.22906   0.27105   0.74996   1.000
    O60     O    0.32205   0.37681   0.75574   1.000
    O61     O    0.12331   0.17808   0.74423   1.000
    O62     O    0.15271   0.19655   0.68814   1.000
    O63     O    0.30357   0.34735   0.81181   1.000
    C64     C    0.22906   0.77104   0.74997   1.000
    O65     O    0.32205   0.87680   0.75575   1.000
    O66     O    0.12331   0.67807   0.74423   1.000
    O67     O    0.15271   0.69654   0.68815   1.000
    O68     O    0.30357   0.84734   0.81182   1.000
    C69     C    0.72899   0.95833   0.08302   1.000
    O70     O    0.80351   0.95632   0.02069   1.000
    O71     O    0.82188   0.94530   0.07741   1.000
    O72     O    0.65261   0.95649   0.14497   1.000
    O73     O    0.62313   0.94537   0.08890   1.000
    C74     C    0.72899   0.45834   0.08304   1.000
    O75     O    0.82188   0.44531   0.07740   1.000
    O76     O    0.80351   0.45633   0.02070   1.000
    O77     O    0.62313   0.44538   0.08890   1.000
    O78     O    0.65261   0.45650   0.14498   1.000
    C79     C    0.54172   0.27103   0.41664   1.000
    O80     O    0.54367   0.19652   0.47847   1.000
    O81     O    0.55467   0.37687   0.41091   1.000
    O82     O    0.54361   0.34746   0.35482   1.000
    O83     O    0.55474   0.17813   0.42240   1.000
    C84     C    0.54172   0.77102   0.41665   1.000
    O85     O    0.54367   0.69651   0.47847   1.000
    O86     O    0.55467   0.87686   0.41092   1.000
    O87     O    0.54361   0.84745   0.35483   1.000
    O88     O    0.55474   0.67812   0.42242   1.000
    C89     C    0.77101   0.04173   0.58336   1.000
    O90     O    0.69649   0.04368   0.52154   1.000
    O91     O    0.67811   0.05476   0.57759   1.000
    O92     O    0.87686   0.05469   0.58909   1.000
    O93     O    0.84745   0.04362   0.64518   1.000
    C94     C    0.27101   0.04174   0.58336   1.000
    O95     O    0.19649   0.04369   0.52154   1.000
    O96     O    0.34745   0.04363   0.64518   1.000
    O97     O    0.17811   0.05476   0.57759   1.000
    O98     O    0.37686   0.05469   0.58909   1.000
    C99     C    0.45835   0.72896   0.91675   1.000
    O100    O    0.44539   0.62311   0.91097   1.000
    O101    O    0.45651   0.65259   0.85492   1.000
    O102    O    0.45634   0.80348   0.97854   1.000
    O103    O    0.44532   0.82185   0.92247   1.000
    C104    C    0.72907   0.27105   0.74997   1.000
    O105    O    0.62331   0.17808   0.74423   1.000
    O106    O    0.65271   0.19655   0.68814   1.000
    O107    O    0.80357   0.34735   0.81181   1.000
    O108    O    0.82205   0.37681   0.75574   1.000
    C109    C    0.72906   0.77104   0.74996   1.000
    O110    O    0.62331   0.67806   0.74423   1.000
    O111    O    0.65271   0.69653   0.68814   1.000
    O112    O    0.80357   0.84733   0.81181   1.000
    O113    O    0.82205   0.87680   0.75574   1.000
    C114    C    0.77101   0.54172   0.58336   1.000
    O115    O    0.69649   0.54367   0.52154   1.000
    O116    O    0.67811   0.55475   0.57759   1.000
    O117    O    0.87686   0.55468   0.58909   1.000
    O118    O    0.84745   0.54362   0.64518   1.000
    C119    C    0.45836   0.22897   0.91672   1.000
    O120    O    0.44532   0.32186   0.92247   1.000
    O121    O    0.45652   0.15260   0.85490   1.000
    O122    O    0.44540   0.12311   0.91096   1.000
    O123    O    0.45634   0.30349   0.97852   1.000
    C124    C    0.77104   0.72904   0.25004   1.000
    O125    O    0.67806   0.62330   0.25577   1.000
    O126    O    0.87680   0.82202   0.24424   1.000
    O127    O    0.84734   0.80354   0.18819   1.000
    O128    O    0.69652   0.65269   0.31186   1.000
    C129    C    0.27103   0.72904   0.24953   1.000
    O130    O    0.34734   0.80354   0.18794   1.000
    O131    O    0.19652   0.65269   0.31159   1.000
    O132    O    0.37680   0.82202   0.24226   1.000
    O133    O    0.17806   0.62330   0.25550   1.000
    C134    C    0.27104   0.22906   0.25004   1.000
    O135    O    0.19652   0.15271   0.31187   1.000
    O136    O    0.37680   0.32204   0.24426   1.000
    O137    O    0.34734   0.30356   0.18820   1.000
    O138    O    0.17806   0.12331   0.25576   1.000
    C139    C    0.04172   0.27104   0.41666   1.000
    O140    O    0.05467   0.37687   0.41092   1.000
    O141    O    0.04361   0.34747   0.35481   1.000
    O142    O    0.05474   0.17813   0.42242   1.000
    O143    O    0.04367   0.19652   0.47848   1.000
loop_
    _geom_bond_atom_site_label_1
    _geom_bond_atom_site_label_2
    _geom_bond_distance
    _geom_bond_site_symmetry_2
    _ccdc_geom_bond_type
    C24    O25       1.98356      .   S
    Zr19   O25       3.04794  1_565   S
    C24    O26       2.01591      .   S
    Zr2    O26       3.11360      .   S
    C24    O27       2.01624      .   S
    Zr10   O27       3.11411  1_554   S
    C24    O28       1.98392      .   S
    Zr18   O28       3.04869      .   S
    C29    O30       2.01631      .   S
    Zr13   O30       3.11467      .   S
    C29    O31       1.98334      .   S
    Zr4    O31       3.04761  1_545   S
    C29    O32       1.98410      .   S
    Zr5    O32       3.04892      .   S
    C29    O33       2.01590      .   S
    Zr21   O33       3.11434      .   S
    C34    O35       2.02459      .   S
    Zr16   O35       3.10176  1_556   S
    C34    O36       1.98376      .   S
    Zr8    O36       3.04862      .   S
    C34    O37       1.98360      .   S
    Zr10   O37       3.04761  1_655   S
    C34    O38       2.01710      .   S
    Zr12   O38       3.11439      .   S
    C39    O40       2.01588      .   S
    Zr3    O40       3.11355      .   S
    C39    O41       1.98346      .   S
    Zr18   O41       3.04766      .   S
    C39    O42       2.01627      .   S
    Zr11   O42       3.11416  1_554   S
    C39    O43       1.98393      .   S
    Zr19   O43       3.04868      .   S
    C44    O45       2.01618      .   S
    Zr5    O45       3.11401      .   S
    C44    O46       2.01613      .   S
    Zr1    O46       3.11398      .   S
    C44    O47       1.98400      .   S
    Zr21   O47       3.04872      .   S
    C44    O48       1.98328      .   S
    Zr23   O48       3.04741      .   S
    C49    O50       1.98371      .   S
    Zr9    O50       3.04863      .   S
    C49    O51       2.02432      .   S
    Zr17   O51       3.10148  1_556   S
    C49    O52       1.98363      .   S
    Zr11   O52       3.04760  1_655   S
    C49    O53       2.01737      .   S
    Zr13   O53       3.11468      .   S
    C54    O55       1.98406      .   S
    Zr15   O55       3.04905  1_565   S
    C54    O56       1.98434      .   S
    Zr12   O56       3.04927  1_455   S
    C54    O57       2.01598      .   S
    Zr10   O57       3.11354      .   S
    C54    O58       2.01613      .   S
    Zr6    O58       3.11372      .   S
    C59    O60       1.98426      .   S
    Zr1    O60       3.04923      .   S
    C59    O61       1.98405      .   S
    Zr2    O61       3.04891  1_655   S
    C59    O62       2.01607      .   S
    Zr20   O62       3.11368      .   S
    C59    O63       2.01607      .   S
    Zr16   O63       3.11363      .   S
    C64    O65       1.98433      .   S
    Zr0    O65       3.04946  1_545   S
    C64    O66       1.98405      .   S
    Zr3    O66       3.04890  1_655   S
    C64    O67       2.01614      .   S
    Zr21   O67       3.11376      .   S
    C64    O68       2.01599      .   S
    Zr17   O68       3.11354      .   S
    C69    O70       2.02433      .   S
    Zr19   O70       3.10149  1_556   S
    C69    O71       1.98371      .   S
    Zr11   O71       3.04863      .   S
    C69    O72       2.01762      .   S
    Zr15   O72       3.11553      .   S
    C69    O73       1.98363      .   S
    Zr9    O73       3.04758      .   S
    C74    O75       1.98375      .   S
    Zr10   O75       3.04864      .   S
    C74    O76       2.02447      .   S
    Zr18   O76       3.10165  1_556   S
    C74    O77       1.98359      .   S
    Zr8    O77       3.04759      .   S
    C74    O78       2.01748      .   S
    Zr14   O78       3.11536      .   S
    C79    O80       2.01619      .   S
    Zr22   O80       3.11400      .   S
    C79    O81       1.98324      .   S
    Zr7    O81       3.04731      .   S
    C79    O82       2.01604      .   S
    Zr14   O82       3.11383      .   S
    C79    O83       1.98408      .   S
    Zr6    O83       3.04891      .   S
    C84    O85       2.01617      .   S
    Zr23   O85       3.11398      .   S
    C84    O86       1.98334      .   S
    Zr6    O86       3.04761  1_545   S
    C84    O87       2.01607      .   S
    Zr15   O87       3.11385      .   S
    C84    O88       1.98410      .   S
    Zr7    O88       3.04894      .   S
    C89    O90       2.01613      .   S
    Zr6    O90       3.11395      .   S
    C89    O91       1.98401      .   S
    Zr22   O91       3.04874      .   S
    C89    O92       1.98329      .   S
    Zr20   O92       3.04743  1_455   S
    C89    O93       2.01619      .   S
    Zr2    O93       3.11403      .   S
    C94    O95       2.01618      .   S
    Zr4    O95       3.11401      .   S
    C94    O96       2.01614      .   S
    Zr0    O96       3.11398      .   S
    C94    O97       1.98401      .   S
    Zr20   O97       3.04871      .   S
    C94    O98       1.98327      .   S
    Zr22   O98       3.04740      .   S
    C99    O100      1.98347      .   S
    Zr16   O100      3.04767      .   S
    C99    O101      2.01582      .   S
    Zr1    O101      3.11350      .   S
    C99    O102      2.01634      .   S
    Zr9    O102      3.11422  1_554   S
    C99    O103      1.98393      .   S
    Zr17   O103      3.04868      .   S
    C104   O105      1.98404      .   S
    Zr0    O105      3.04888      .   S
    C104   O106      2.01612      .   S
    Zr22   O106      3.11375      .   S
    C104   O107      2.01601      .   S
    Zr18   O107      3.11356      .   S
    C104   O108      1.98426      .   S
    Zr3    O108      3.04923      .   S
    C109   O110      1.98404      .   S
    Zr1    O110      3.04889      .   S
    C109   O111      2.01607      .   S
    Zr23   O111      3.11369      .   S
    C109   O112      2.01606      .   S
    Zr19   O112      3.11362      .   S
    C109   O113      1.98433      .   S
    Zr2    O113      3.04945  1_545   S
    C114   O115      2.01613      .   S
    Zr7    O115      3.11394      .   S
    C114   O116      1.98400      .   S
    Zr23   O116      3.04873      .   S
    C114   O117      1.98329      .   S
    Zr21   O117      3.04743  1_455   S
    C114   O118      2.01619      .   S
    Zr3    O118      3.11404      .   S
    C119   O120      1.98396      .   S
    Zr16   O120      3.04868      .   S
    C119   O121      2.01559      .   S
    Zr0    O121      3.11324      .   S
    C119   O122      1.98354      .   S
    Zr17   O122      3.04797  1_565   S
    C119   O123      2.01657      .   S
    Zr8    O123      3.11447  1_554   S
    C124   O125      1.98399      .   S
    Zr14   O125      3.04881      .   S
    C124   O126      1.98434      .   S
    Zr13   O126      3.04928  1_455   S
    C124   O127      2.01595      .   S
    Zr11   O127      3.11350      .   S
    C124   O128      2.01617      .   S
    Zr7    O128      3.11376      .   S
    C129   O130      2.01222      .   S
    Zr9    O130      3.10942      .   S
    C129   O131      2.01964      .   S
    Zr5    O131      3.11812      .   S
    C129   O132      1.98666      .   S
    Zr15   O132      3.05141      .   S
    C129   O133      1.98434      .   S
    Zr12   O133      3.04864      .   S
    C134   O135      2.01614      .   S
    Zr4    O135      3.11373      .   S
    C134   O136      1.98431      .   S
    Zr14   O136      3.04930      .   S
    C134   O137      2.01596      .   S
    Zr8    O137      3.11353      .   S
    C134   O138      1.98404      .   S
    Zr13   O138      3.04910  1_565   S
    C139   O140      1.98325      .   S
    Zr5    O140      3.04733      .   S
    C139   O141      2.01637      .   S
    Zr12   O141      3.11473      .   S
    C139   O142      1.98409      .   S
    Zr4    O142      3.04892      .   S
    C139   O143      2.01616      .   S
    Zr20   O143      3.11391      .   S
