# CIF file generated by openbabel 2.4.90, see http://openbabel.sf.net
data_I
_chemical_name_common 'VESTA_phase_1'
_cell_length_a 12.599
_cell_length_b 17.292
_cell_length_c 19.294
_cell_angle_alpha 65.181
_cell_angle_beta 84.55
_cell_angle_gamma 83.659
_space_group_name_H-M_alt 'P 1'
_space_group_name_Hall 'P 1'
loop_
    _symmetry_equiv_pos_as_xyz
    x,y,z
loop_
    _atom_site_label
    _atom_site_type_symbol
    _atom_site_fract_x
    _atom_site_fract_y
    _atom_site_fract_z
    _atom_site_occupancy
    Ba0     Ba   0.35994   0.23529   0.35010   1.000
    Ba1     Ba   0.35994   0.23530   0.85014   1.000
    Ba2     Ba   0.35994   0.73531   0.35010   1.000
    Ba3     Ba   0.35994   0.73531   0.85014   1.000
    Ba4     Ba   0.85994   0.23529   0.35010   1.000
    Ba5     Ba   0.85993   0.23530   0.85014   1.000
    Ba6     Ba   0.85993   0.73531   0.35015   1.000
    Ba7     Ba   0.85993   0.73531   0.85014   1.000
    Ba8     Ba   0.39296   0.43134   0.46672   1.000
    Ba9     Ba   0.39296   0.43134   0.96671   1.000
    Ba10    Ba   0.39296   0.93135   0.46672   1.000
    Ba11    Ba   0.39296   0.93136   0.96671   1.000
    Ba12    Ba   0.89296   0.43134   0.46672   1.000
    Ba13    Ba   0.89296   0.43134   0.96671   1.000
    Ba14    Ba   0.89296   0.93135   0.46672   1.000
    Ba15    Ba   0.89295   0.93136   0.96671   1.000
    Ba16    Ba   0.14005   0.26473   0.14984   1.000
    Ba17    Ba   0.14005   0.26473   0.64983   1.000
    Ba18    Ba   0.14005   0.76474   0.14984   1.000
    Ba19    Ba   0.14004   0.76475   0.64983   1.000
    Ba20    Ba   0.64005   0.26473   0.14984   1.000
    Ba21    Ba   0.64004   0.26473   0.64983   1.000
    Ba22    Ba   0.64004   0.76474   0.14984   1.000
    Ba23    Ba   0.64004   0.76475   0.64983   1.000
    Ba24    Ba   0.10703   0.06868   0.03327   1.000
    Ba25    Ba   0.10703   0.06869   0.53326   1.000
    Ba26    Ba   0.10703   0.56869   0.03327   1.000
    Ba27    Ba   0.10702   0.56870   0.53326   1.000
    Ba28    Ba   0.60703   0.06868   0.03327   1.000
    Ba29    Ba   0.60702   0.06869   0.53326   1.000
    Ba30    Ba   0.60702   0.56869   0.03327   1.000
    Ba31    Ba   0.60702   0.56870   0.53326   1.000
    C32     C    0.09118   0.29414   0.41330   1.000
    C33     C    0.09118   0.29414   0.91335   1.000
    C34     C    0.09118   0.79414   0.41337   1.000
    C35     C    0.09118   0.79416   0.91330   1.000
    C36     C    0.59118   0.29413   0.41336   1.000
    C37     C    0.59117   0.29414   0.91335   1.000
    C38     C    0.59118   0.79415   0.41336   1.000
    C39     C    0.59117   0.79416   0.91335   1.000
    C40     C    0.16276   0.34186   0.44080   1.000
    C41     C    0.16276   0.34187   0.94070   1.000
    C42     C    0.16276   0.84189   0.44078   1.000
    C43     C    0.16276   0.84187   0.94079   1.000
    C44     C    0.66276   0.34187   0.44079   1.000
    C45     C    0.66276   0.34187   0.94079   1.000
    C46     C    0.66276   0.84188   0.44079   1.000
    C47     C    0.66275   0.84188   0.94079   1.000
    C48     C    0.07065   0.10927   0.34103   1.000
    C49     C    0.07065   0.10927   0.84103   1.000
    C50     C    0.07065   0.60928   0.34103   1.000
    C51     C    0.07064   0.60928   0.84103   1.000
    C52     C    0.57065   0.10927   0.34103   1.000
    C53     C    0.57064   0.10927   0.84103   1.000
    C54     C    0.57064   0.60928   0.34103   1.000
    C55     C    0.57064   0.60928   0.84103   1.000
    C56     C    0.19465   0.10631   0.34236   1.000
    C57     C    0.19464   0.10631   0.84235   1.000
    C58     C    0.19464   0.60632   0.34236   1.000
    C59     C    0.19464   0.60633   0.84235   1.000
    C60     C    0.69464   0.10631   0.34236   1.000
    C61     C    0.69464   0.10631   0.84235   1.000
    C62     C    0.69464   0.60632   0.34236   1.000
    C63     C    0.69464   0.60633   0.84235   1.000
    C64     C    0.40881   0.20588   0.08663   1.000
    C65     C    0.40881   0.20588   0.58660   1.000
    C66     C    0.40881   0.70591   0.08661   1.000
    C67     C    0.40880   0.70590   0.58662   1.000
    C68     C    0.90881   0.20589   0.08662   1.000
    C69     C    0.90880   0.20589   0.58661   1.000
    C70     C    0.90880   0.70590   0.08663   1.000
    C71     C    0.90880   0.70590   0.58660   1.000
    C72     C    0.33723   0.15816   0.05910   1.000
    C73     C    0.33722   0.15817   0.55917   1.000
    C74     C    0.33723   0.65816   0.05900   1.000
    C75     C    0.33722   0.65818   0.55917   1.000
    C76     C    0.83722   0.15816   0.05919   1.000
    C77     C    0.83722   0.15816   0.55918   1.000
    C78     C    0.83722   0.65818   0.05918   1.000
    C79     C    0.83722   0.65819   0.55917   1.000
    C80     C    0.42934   0.39075   0.15895   1.000
    C81     C    0.42934   0.39076   0.65894   1.000
    C82     C    0.42934   0.89077   0.15895   1.000
    C83     C    0.42933   0.89077   0.65894   1.000
    C84     C    0.92934   0.39075   0.15895   1.000
    C85     C    0.92933   0.39076   0.65894   1.000
    C86     C    0.92933   0.89077   0.15895   1.000
    C87     C    0.92933   0.89077   0.65894   1.000
    C88     C    0.30534   0.39371   0.15762   1.000
    C89     C    0.30534   0.39372   0.65760   1.000
    C90     C    0.30534   0.89373   0.15762   1.000
    C91     C    0.30534   0.89373   0.65760   1.000
    C92     C    0.80534   0.39371   0.15762   1.000
    C93     C    0.80534   0.39372   0.65760   1.000
    C94     C    0.80534   0.89373   0.15762   1.000
    C95     C    0.80533   0.89373   0.65760   1.000
    O96     O    0.49373   0.32138   0.40368   1.000
    O97     O    0.49373   0.32139   0.90367   1.000
    O98     O    0.49373   0.82140   0.40368   1.000
    O99     O    0.49373   0.82140   0.90360   1.000
    O100    O    0.99373   0.32138   0.40367   1.000
    O101    O    0.99372   0.32139   0.90367   1.000
    O102    O    0.99373   0.82140   0.40368   1.000
    O103    O    0.99372   0.82140   0.90360   1.000
    O104    O    0.13482   0.22823   0.40526   1.000
    O105    O    0.13481   0.22823   0.90525   1.000
    O106    O    0.13481   0.72824   0.40526   1.000
    O107    O    0.13481   0.72825   0.90525   1.000
    O108    O    0.63481   0.22822   0.40526   1.000
    O109    O    0.63481   0.22823   0.90525   1.000
    O110    O    0.63481   0.72824   0.40526   1.000
    O111    O    0.63481   0.72825   0.90525   1.000
    O112    O    0.11970   0.37023   0.48870   1.000
    O113    O    0.11969   0.37024   0.98869   1.000
    O114    O    0.11969   0.87025   0.48870   1.000
    O115    O    0.11969   0.87025   0.98870   1.000
    O116    O    0.61969   0.37023   0.48870   1.000
    O117    O    0.61969   0.37024   0.98800   1.000
    O118    O    0.61969   0.87025   0.48870   1.000
    O119    O    0.61969   0.87025   0.98870   1.000
    O120    O    0.25974   0.34690   0.41563   1.000
    O121    O    0.25973   0.34690   0.91560   1.000
    O122    O    0.25974   0.84691   0.41563   1.000
    O123    O    0.25973   0.84691   0.91563   1.000
    O124    O    0.75974   0.34690   0.41563   1.000
    O125    O    0.75973   0.34690   0.91560   1.000
    O126    O    0.75973   0.84691   0.41563   1.000
    O127    O    0.75973   0.84692   0.91563   1.000
    O128    O    0.01841   0.06997   0.40440   1.000
    O129    O    0.01841   0.06997   0.90400   1.000
    O130    O    0.01841   0.56998   0.40440   1.000
    O131    O    0.01840   0.56999   0.90400   1.000
    O132    O    0.51841   0.06997   0.40440   1.000
    O133    O    0.51840   0.06997   0.90400   1.000
    O134    O    0.51841   0.56998   0.40440   1.000
    O135    O    0.51840   0.56999   0.90400   1.000
    O136    O    0.02812   0.15528   0.27887   1.000
    O137    O    0.02811   0.15528   0.77886   1.000
    O138    O    0.02811   0.65529   0.27887   1.000
    O139    O    0.02811   0.65530   0.77886   1.000
    O140    O    0.52811   0.15528   0.27887   1.000
    O141    O    0.52811   0.15528   0.77886   1.000
    O142    O    0.52811   0.65529   0.27887   1.000
    O143    O    0.52811   0.65530   0.77886   1.000
    O144    O    0.23688   0.06438   0.40667   1.000
    O145    O    0.23688   0.06439   0.90666   1.000
    O146    O    0.23688   0.56439   0.40667   1.000
    O147    O    0.23688   0.56440   0.90666   1.000
    O148    O    0.73688   0.06438   0.40667   1.000
    O149    O    0.73687   0.06439   0.90666   1.000
    O150    O    0.73688   0.56439   0.40667   1.000
    O151    O    0.73687   0.56440   0.90666   1.000
    O152    O    0.24472   0.15090   0.28106   1.000
    O153    O    0.24472   0.15091   0.78105   1.000
    O154    O    0.24472   0.65092   0.28106   1.000
    O155    O    0.24471   0.65092   0.78105   1.000
    O156    O    0.74472   0.15090   0.28106   1.000
    O157    O    0.74471   0.15091   0.78105   1.000
    O158    O    0.74471   0.65092   0.28106   1.000
    O159    O    0.74471   0.65092   0.78105   1.000
    O160    O    0.00626   0.17863   0.09631   1.000
    O161    O    0.00626   0.17864   0.59630   1.000
    O162    O    0.00626   0.67865   0.09631   1.000
    O163    O    0.00625   0.67865   0.59630   1.000
    O164    O    0.50626   0.17863   0.09631   1.000
    O165    O    0.50625   0.17864   0.59630   1.000
    O166    O    0.50625   0.67865   0.09630   1.000
    O167    O    0.50625   0.67865   0.59630   1.000
    O168    O    0.36517   0.27179   0.09472   1.000
    O169    O    0.36517   0.27179   0.59470   1.000
    O170    O    0.36517   0.77181   0.09472   1.000
    O171    O    0.36517   0.77181   0.59472   1.000
    O172    O    0.86517   0.27179   0.09472   1.000
    O173    O    0.86517   0.27180   0.59471   1.000
    O174    O    0.86517   0.77181   0.09472   1.000
    O175    O    0.86517   0.77181   0.59472   1.000
    O176    O    0.38029   0.12979   0.01128   1.000
    O177    O    0.38029   0.12979   0.51127   1.000
    O178    O    0.38029   0.62980   0.01128   1.000
    O179    O    0.38029   0.62981   0.51127   1.000
    O180    O    0.88029   0.12979   0.01128   1.000
    O181    O    0.88029   0.12979   0.51127   1.000
    O182    O    0.88029   0.62980   0.01128   1.000
    O183    O    0.88028   0.62981   0.51127   1.000
    O184    O    0.24025   0.15312   0.08435   1.000
    O185    O    0.24025   0.15313   0.58434   1.000
    O186    O    0.24025   0.65313   0.08435   1.000
    O187    O    0.24025   0.65314   0.58434   1.000
    O188    O    0.74025   0.15312   0.08435   1.000
    O189    O    0.74025   0.15313   0.58434   1.000
    O190    O    0.74025   0.65314   0.08435   1.000
    O191    O    0.74025   0.65314   0.58434   1.000
    O192    O    0.48158   0.43005   0.09558   1.000
    O193    O    0.48158   0.43006   0.59557   1.000
    O194    O    0.48158   0.93007   0.09558   1.000
    O195    O    0.48157   0.93007   0.59557   1.000
    O196    O    0.98158   0.43005   0.09558   1.000
    O197    O    0.98157   0.43006   0.59557   1.000
    O198    O    0.98157   0.93007   0.09558   1.000
    O199    O    0.98157   0.93007   0.59557   1.000
    O200    O    0.47187   0.34474   0.22111   1.000
    O201    O    0.47187   0.34475   0.72110   1.000
    O202    O    0.47187   0.84475   0.22111   1.000
    O203    O    0.47187   0.84476   0.72110   1.000
    O204    O    0.97187   0.34474   0.22111   1.000
    O205    O    0.97187   0.34475   0.72110   1.000
    O206    O    0.97187   0.84475   0.22111   1.000
    O207    O    0.97187   0.84476   0.72110   1.000
    O208    O    0.26311   0.43564   0.09331   1.000
    O209    O    0.26311   0.43564   0.59330   1.000
    O210    O    0.26311   0.93565   0.09331   1.000
    O211    O    0.26310   0.93566   0.59330   1.000
    O212    O    0.76311   0.43564   0.09331   1.000
    O213    O    0.76310   0.43564   0.59330   1.000
    O214    O    0.76310   0.93565   0.09331   1.000
    O215    O    0.76310   0.93566   0.59330   1.000
    O216    O    0.25527   0.34912   0.21892   1.000
    O217    O    0.25527   0.34912   0.71891   1.000
    O218    O    0.25527   0.84913   0.21892   1.000
    O219    O    0.25526   0.84914   0.71891   1.000
    O220    O    0.75527   0.34912   0.21892   1.000
    O221    O    0.75526   0.34912   0.71891   1.000
    O222    O    0.75526   0.84913   0.21892   1.000
    O223    O    0.75526   0.84914   0.71891   1.000
loop_
    _geom_bond_atom_site_label_1
    _geom_bond_atom_site_label_2
    _geom_bond_distance
    _geom_bond_site_symmetry_2
    _ccdc_geom_bond_type
    O182   C78       1.27118      .   S
    O180   C76       1.27130      .   S
    O178   C74       1.26810      .   S
    O176   C72       1.26986      .   S
    Ba30   O212      2.77461      .   S
    Ba30   O192      2.78340      .   S
    Ba28   O214      2.77430  1_545   S
    Ba28   O194      2.78307  1_545   S
    Ba26   O208      2.77462      .   S
    Ba26   O196      2.78345  1_455   S
    Ba24   O210      2.77430  1_545   S
    Ba24   O198      2.78311  1_445   S
    C74    O186      1.27040      .   S
    C74    C66       1.55038      .   S
    C72    O184      1.26985      .   S
    C72    C64       1.54914      .   S
    C78    O190      1.26943      .   S
    C78    C70       1.54817      .   S
    C76    O188      1.26940      .   S
    C76    C68       1.54800      .   S
    C66    O170      1.27292      .   S
    C66    O166      1.26734      .   S
    C68    O172      1.27291      .   S
    C68    O160      1.26743  1_655   S
    C64    O168      1.27285      .   S
    C64    O164      1.26733      .   S
    C70    O174      1.27285      .   S
    C70    O162      1.26741  1_655   S
    O210   C90       1.27802      .   S
    O212   C92       1.27802      .   S
    O214   C94       1.27802      .   S
    O208   C88       1.27802      .   S
    O194   C82       1.27995      .   S
    O196   C84       1.27995      .   S
    O198   C86       1.27995      .   S
    O192   C80       1.27995      .   S
    Ba18   O138      2.78129      .   S
    Ba18   O154      2.81078      .   S
    Ba16   O136      2.78129      .   S
    Ba16   O152      2.81078      .   S
    Ba20   O140      2.78129      .   S
    Ba20   O156      2.81078      .   S
    Ba22   O142      2.78130      .   S
    Ba22   O158      2.81077      .   S
    C88    C80       1.55971      .   S
    C88    O216      1.26157      .   S
    C90    C82       1.55972      .   S
    C90    O218      1.26156      .   S
    C94    C86       1.55971      .   S
    C94    O222      1.26157      .   S
    C92    C84       1.55972      .   S
    C92    O220      1.26156      .   S
    C84    O204      1.25913      .   S
    C80    O200      1.25913      .   S
    C82    O202      1.25913      .   S
    C86    O206      1.25914      .   S
    O222   Ba6       2.81090      .   S
    O216   Ba0       2.81027      .   S
    O220   Ba4       2.81027      .   S
    O218   Ba2       2.81027      .   S
    O206   Ba6       2.78141      .   S
    O204   Ba4       2.78086      .   S
    O202   Ba2       2.78086      .   S
    O200   Ba0       2.78087      .   S
    O142   C54       1.25914      .   S
    O140   C52       1.25914      .   S
    O138   C50       1.25914      .   S
    O136   C48       1.25913      .   S
    O152   C56       1.26157      .   S
    O154   C58       1.26156      .   S
    O158   C62       1.26157      .   S
    O156   C60       1.26156      .   S
    C48    C56       1.55970      .   S
    C48    O128      1.27995      .   S
    C54    C62       1.55971      .   S
    C54    O134      1.27995      .   S
    C52    C60       1.55971      .   S
    C52    O132      1.27995      .   S
    C50    C58       1.55971      .   S
    C50    O130      1.27995      .   S
    C62    O150      1.27803      .   S
    C60    O148      1.27802      .   S
    C58    O146      1.27802      .   S
    C56    O144      1.27802      .   S
    O100   C32       1.26734  1_655   S
    O96    C36       1.26733      .   S
    O98    C38       1.26733      .   S
    O102   C34       1.26741  1_655   S
    O128   Ba14      2.78312  1_445   S
    O134   Ba8       2.78340      .   S
    O132   Ba10      2.78306  1_545   S
    O130   Ba12      2.78346  1_455   S
    O104   C32       1.27242      .   S
    O106   C34       1.27290      .   S
    O108   C36       1.27288      .   S
    O110   C38       1.27289      .   S
    O150   Ba12      2.77464      .   S
    O148   Ba14      2.77432  1_545   S
    O146   Ba8       2.77464      .   S
    O144   Ba10      2.77431  1_545   S
    C32    C40       1.54874      .   S
    C38    C46       1.54806      .   S
    C36    C44       1.54811      .   S
    C34    C42       1.54806      .   S
    O124   C44       1.26942      .   S
    O120   C40       1.26944      .   S
    O122   C42       1.26941      .   S
    O126   C46       1.26940      .   S
    C42    O114      1.27133      .   S
    C44    O116      1.27125      .   S
    C46    O118      1.27129      .   S
    C40    O112      1.27119      .   S
    O183   C79       1.27125      .   S
    O179   C75       1.27119      .   S
    O177   C73       1.27125      .   S
    O181   C77       1.27127      .   S
    Ba31   O213      2.77464      .   S
    Ba31   O193      2.78341      .   S
    Ba29   O215      2.77430  1_545   S
    Ba29   O195      2.78307  1_545   S
    Ba27   O209      2.77464      .   S
    Ba27   O197      2.78346  1_455   S
    Ba25   O211      2.77430  1_545   S
    Ba25   O199      2.78311  1_445   S
    C79    O191      1.26942      .   S
    C79    C71       1.54776      .   S
    C75    O187      1.26944      .   S
    C75    C67       1.54811      .   S
    C73    O185      1.26941      .   S
    C73    C65       1.54778      .   S
    C77    O189      1.26940      .   S
    C77    C69       1.54806      .   S
    C71    O175      1.27317      .   S
    C71    O163      1.26745  1_655   S
    C65    O169      1.27298      .   S
    C65    O165      1.26737      .   S
    C69    O173      1.27289      .   S
    C69    O161      1.26742  1_655   S
    C67    O171      1.27295      .   S
    C67    O167      1.26733      .   S
    O213   C93       1.27787      .   S
    O209   C89       1.27787      .   S
    O211   C91       1.27787      .   S
    O215   C95       1.27786      .   S
    O195   C83       1.27995      .   S
    O193   C81       1.27995      .   S
    O197   C85       1.27995      .   S
    O199   C87       1.27995      .   S
    Ba17   O137      2.78130      .   S
    Ba17   O153      2.81077      .   S
    Ba19   O139      2.78129      .   S
    Ba19   O155      2.81078      .   S
    Ba21   O141      2.78129      .   S
    Ba21   O157      2.81078      .   S
    Ba23   O143      2.78129      .   S
    Ba23   O159      2.81077      .   S
    C89    C81       1.55972      .   S
    C89    O217      1.26169      .   S
    C91    C83       1.55972      .   S
    C91    O219      1.26169      .   S
    C93    C85       1.55973      .   S
    C93    O221      1.26169      .   S
    C95    C87       1.55974      .   S
    C95    O223      1.26169      .   S
    C85    O205      1.25914      .   S
    C87    O207      1.25914      .   S
    C83    O203      1.25914      .   S
    C81    O201      1.25914      .   S
    O217   Ba1       2.81090      .   S
    O219   Ba3       2.81090      .   S
    O221   Ba5       2.81090      .   S
    O223   Ba7       2.81090      .   S
    O201   Ba1       2.78140      .   S
    O203   Ba3       2.78140      .   S
    O205   Ba5       2.78140      .   S
    O207   Ba7       2.78140      .   S
    O137   C49       1.25928      .   S
    O139   C51       1.25928      .   S
    O141   C53       1.25928      .   S
    O143   C55       1.25927      .   S
    O157   C61       1.26157      .   S
    O159   C63       1.26156      .   S
    O153   C57       1.26157      .   S
    O155   C59       1.26157      .   S
    C49    C57       1.55969      .   S
    C49    O129      1.27469      .   S
    C51    C59       1.55969      .   S
    C51    O131      1.27469      .   S
    C53    C61       1.55969      .   S
    C53    O133      1.27469      .   S
    C55    C63       1.55970      .   S
    C55    O135      1.27468      .   S
    C57    O145      1.27802      .   S
    C59    O147      1.27802      .   S
    C61    O149      1.27802      .   S
    C63    O151      1.27802      .   S
    O103   C35       1.26745  1_655   S
    O99    C39       1.26745      .   S
    O101   C33       1.26740  1_655   S
    O97    C37       1.26733      .   S
    O135   Ba9       2.78354      .   S
    O133   Ba11      2.78320  1_545   S
    O131   Ba13      2.78359  1_455   S
    O129   Ba15      2.78325  1_445   S
    O109   C37       1.27292      .   S
    O111   C39       1.27295      .   S
    O107   C35       1.27252      .   S
    O105   C33       1.27290      .   S
    O151   Ba13      2.77465      .   S
    O145   Ba11      2.77434  1_545   S
    O147   Ba9       2.77465      .   S
    O149   Ba15      2.77433  1_545   S
    C35    C43       1.54857      .   S
    C33    C41       1.54711      .   S
    C39    C47       1.54800      .   S
    C37    C45       1.54810      .   S
    O125   C45       1.26955      .   S
    O121   C41       1.26910      .   S
    O127   C47       1.26938      .   S
    O123   C43       1.26937      .   S
    C41    O113      1.27260      .   S
    C43    O115      1.27137      .   S
    C45    O117      1.25987      .   S
    C47    O119      1.27135      .   S
    O96    Ba0       2.88162      .   S
    O96    Ba8       2.79665      .   S
    O97    Ba1       2.88099      .   S
    O97    Ba9       2.79665      .   S
    O98    Ba2       2.88159      .   S
    O98    Ba10      2.79667      .   S
    O99    Ba3       2.88015      .   S
    O99    Ba11      2.79753      .   S
    O100   Ba4       2.88147      .   S
    O100   Ba12      2.79677      .   S
    O101   Ba5       2.88100      .   S
    O101   Ba13      2.79665      .   S
    O102   Ba6       2.88100      .   S
    O102   Ba14      2.79668      .   S
    O103   Ba7       2.88015      .   S
    O103   Ba15      2.79753      .   S
    O104   Ba0       2.93025      .   S
    O104   Ba25      2.85692      .   S
    O105   Ba1       2.93002      .   S
    O105   Ba24      2.85716  1_556   S
    O106   Ba2       2.93026      .   S
    O106   Ba27      2.85687      .   S
    O107   Ba3       2.93002      .   S
    O107   Ba26      2.85719  1_556   S
    O108   Ba4       2.93026      .   S
    O108   Ba29      2.85688      .   S
    O109   Ba5       2.93002      .   S
    O109   Ba28      2.85717  1_556   S
    O110   Ba6       2.92999      .   S
    O110   Ba31      2.85690      .   S
    O111   Ba7       2.93002      .   S
    O111   Ba30      2.85720  1_556   S
    O112   Ba12      2.94007  1_455   S
    O112   Ba17      2.88887      .   S
    O113   Ba13      2.94007  1_455   S
    O113   Ba16      2.88923  1_556   S
    O114   Ba14      2.94006  1_455   S
    O114   Ba19      2.88887      .   S
    O115   Ba15      2.94009  1_455   S
    O115   Ba18      2.88907  1_556   S
    O116   Ba8       2.93999      .   S
    O116   Ba21      2.88887      .   S
    O117   Ba9       2.93889      .   S
    O117   Ba20      2.90015  1_556   S
    O118   Ba10      2.94000      .   S
    O118   Ba23      2.88888      .   S
    O119   Ba11      2.94001      .   S
    O119   Ba22      2.88907  1_556   S
    O120   Ba0       2.85022      .   S
    O120   Ba8       2.82580      .   S
    O121   Ba1       2.84931      .   S
    O121   Ba9       2.82602      .   S
    O122   Ba2       2.85027      .   S
    O122   Ba10      2.82572      .   S
    O123   Ba3       2.84968      .   S
    O123   Ba11      2.82572      .   S
    O124   Ba4       2.85025      .   S
    O124   Ba12      2.82577      .   S
    O125   Ba5       2.84930      .   S
    O125   Ba13      2.82604      .   S
    O126   Ba6       2.84958      .   S
    O126   Ba14      2.82578      .   S
    O127   Ba7       2.84969      .   S
    O127   Ba15      2.82569      .   S
    O128   Ba4       3.14302  1_455   S
    O128   Ba25      2.81135      .   S
    O129   Ba5       3.14295  1_455   S
    O129   Ba24      2.81860  1_556   S
    O130   Ba6       3.14304  1_455   S
    O130   Ba27      2.81135      .   S
    O131   Ba7       3.14295  1_455   S
    O131   Ba26      2.81860  1_556   S
    O132   Ba0       3.14300      .   S
    O132   Ba29      2.81136      .   S
    O133   Ba1       3.14290      .   S
    O133   Ba28      2.81860  1_556   S
    O134   Ba2       3.14299      .   S
    O134   Ba31      2.81136      .   S
    O135   Ba3       3.14290      .   S
    O135   Ba30      2.81859  1_556   S
    O136   Ba4       2.94757  1_455   S
    O137   Ba5       2.94815  1_455   S
    O138   Ba6       2.94816  1_455   S
    O139   Ba7       2.94816  1_455   S
    O140   Ba0       2.94753      .   S
    O141   Ba1       2.94809      .   S
    O142   Ba2       2.94752      .   S
    O143   Ba3       2.94810      .   S
    O144   Ba0       3.21124      .   S
    O144   Ba25      2.83096      .   S
    O145   Ba1       3.21134      .   S
    O145   Ba24      2.83118  1_556   S
    O146   Ba2       3.21126      .   S
    O146   Ba27      2.83098      .   S
    O147   Ba3       3.21133      .   S
    O147   Ba26      2.83117  1_556   S
    O148   Ba4       3.21125      .   S
    O148   Ba29      2.83096      .   S
    O149   Ba5       3.21133      .   S
    O149   Ba28      2.83118  1_556   S
    O150   Ba6       3.21134      .   S
    O150   Ba31      2.83098      .   S
    O151   Ba7       3.21133      .   S
    O151   Ba30      2.83118  1_556   S
    O152   Ba0       2.91174      .   S
    O153   Ba1       2.91244      .   S
    O154   Ba2       2.91175      .   S
    O155   Ba3       2.91244      .   S
    O156   Ba4       2.91175      .   S
    O157   Ba5       2.91244      .   S
    O158   Ba6       2.91243      .   S
    O159   Ba7       2.91244      .   S
    O160   Ba16      2.88100      .   S
    O160   Ba24      2.79663      .   S
    O161   Ba17      2.88100      .   S
    O161   Ba25      2.79663      .   S
    O162   Ba18      2.88099      .   S
    O162   Ba26      2.79665      .   S
    O163   Ba19      2.88098      .   S
    O163   Ba27      2.79659      .   S
    O164   Ba20      2.88099      .   S
    O164   Ba28      2.79663      .   S
    O165   Ba21      2.88098      .   S
    O165   Ba29      2.79661      .   S
    O166   Ba22      2.88112      .   S
    O166   Ba30      2.79654      .   S
    O167   Ba23      2.88101      .   S
    O167   Ba31      2.79660      .   S
    O168   Ba9       2.85709  1_554   S
    O168   Ba16      2.93007      .   S
    O169   Ba8       2.85678      .   S
    O169   Ba17      2.93010      .   S
    O170   Ba11      2.85706  1_554   S
    O170   Ba18      2.93007      .   S
    O171   Ba10      2.85694      .   S
    O171   Ba19      2.93003      .   S
    O172   Ba13      2.85710  1_554   S
    O172   Ba20      2.93007      .   S
    O173   Ba12      2.85682      .   S
    O173   Ba21      2.93008      .   S
    O174   Ba15      2.85710  1_554   S
    O174   Ba22      2.93006      .   S
    O175   Ba14      2.85695      .   S
    O175   Ba23      2.93002      .   S
    O176   Ba1       2.88907  1_554   S
    O176   Ba28      2.94001      .   S
    O177   Ba0       2.88950      .   S
    O177   Ba29      2.94002      .   S
    O178   Ba3       2.88907  1_554   S
    O178   Ba30      2.94001      .   S
    O179   Ba2       2.88950      .   S
    O179   Ba31      2.94001      .   S
    O180   Ba5       2.88907  1_554   S
    O180   Ba24      2.94008  1_655   S
    O181   Ba4       2.88950      .   S
    O181   Ba25      2.94009  1_655   S
    O182   Ba7       2.88907  1_554   S
    O182   Ba26      2.94010  1_655   S
    O183   Ba6       2.88871      .   S
    O183   Ba27      2.94009  1_655   S
    O184   Ba16      2.84970      .   S
    O184   Ba24      2.82568      .   S
    O185   Ba17      2.84967      .   S
    O185   Ba25      2.82571      .   S
    O186   Ba18      2.84973      .   S
    O186   Ba26      2.82562      .   S
    O187   Ba19      2.84966      .   S
    O187   Ba27      2.82571      .   S
    O188   Ba20      2.84970      .   S
    O188   Ba28      2.82567      .   S
    O189   Ba21      2.84970      .   S
    O189   Ba29      2.82567      .   S
    O190   Ba22      2.84970      .   S
    O190   Ba30      2.82569      .   S
    O191   Ba23      2.84966      .   S
    O191   Ba31      2.82571      .   S
    O192   Ba9       2.81151  1_554   S
    O192   Ba20      3.14298      .   S
    O193   Ba8       2.81118      .   S
    O193   Ba21      3.14298      .   S
    O194   Ba11      2.81150  1_554   S
    O194   Ba22      3.14299      .   S
    O195   Ba10      2.81118      .   S
    O195   Ba23      3.14300      .   S
    O196   Ba13      2.81151  1_554   S
    O196   Ba16      3.14303  1_655   S
    O197   Ba12      2.81118      .   S
    O197   Ba17      3.14303  1_655   S
    O198   Ba15      2.81151  1_554   S
    O198   Ba18      3.14303  1_655   S
    O199   Ba14      2.81118      .   S
    O199   Ba19      3.14303  1_655   S
    O200   Ba20      2.94799      .   S
    O201   Ba21      2.94798      .   S
    O202   Ba22      2.94799      .   S
    O203   Ba23      2.94800      .   S
    O204   Ba16      2.94804  1_655   S
    O205   Ba17      2.94804  1_655   S
    O206   Ba18      2.94803  1_655   S
    O207   Ba19      2.94804  1_655   S
    O208   Ba9       2.83101  1_554   S
    O208   Ba16      3.21132      .   S
    O209   Ba8       2.83080      .   S
    O209   Ba17      3.21131      .   S
    O210   Ba11      2.83103  1_554   S
    O210   Ba18      3.21132      .   S
    O211   Ba10      2.83079      .   S
    O211   Ba19      3.21134      .   S
    O212   Ba13      2.83102  1_554   S
    O212   Ba20      3.21133      .   S
    O213   Ba12      2.83080      .   S
    O213   Ba21      3.21132      .   S
    O214   Ba15      2.83102  1_554   S
    O214   Ba22      3.21131      .   S
    O215   Ba14      2.83080      .   S
    O215   Ba23      3.21133      .   S
    O216   Ba16      2.91231      .   S
    O217   Ba17      2.91230      .   S
    O218   Ba18      2.91230      .   S
    O219   Ba19      2.91232      .   S
    O220   Ba20      2.91230      .   S
    O221   Ba21      2.91230      .   S
    O222   Ba22      2.91229      .   S
    O223   Ba23      2.91231      .   S
