# CIF file generated by openbabel 2.4.90, see http://openbabel.sf.net
data_I
_chemical_name_common ''
_cell_length_a 12.119
_cell_length_b 14.542
_cell_length_c 15.229
_cell_angle_alpha 90.002
_cell_angle_beta 90.035
_cell_angle_gamma 90.592
_space_group_name_H-M_alt 'P 1'
_space_group_name_Hall 'P 1'
loop_
    _symmetry_equiv_pos_as_xyz
    x,y,z
loop_
    _atom_site_label
    _atom_site_type_symbol
    _atom_site_fract_x
    _atom_site_fract_y
    _atom_site_fract_z
    _atom_site_occupancy
    Zr0     Zr   0.70291   0.70804   0.96598   1.000
    Zr1     Zr   0.20290   0.70806   0.96598   1.000
    Zr2     Zr   0.55174   0.29197   0.46598   1.000
    Zr3     Zr   0.05172   0.29199   0.46599   1.000
    Zr4     Zr   0.80081   0.20751   0.52699   1.000
    Zr5     Zr   0.30079   0.20751   0.52700   1.000
    Zr6     Zr   0.95389   0.79255   0.02700   1.000
    Zr7     Zr   0.45388   0.79255   0.02701   1.000
    N8      N    0.05228   0.94310   0.67270   1.000
    O9      O    0.11164   0.84566   0.79074   1.000
    O10     O    0.02151   0.89144   0.82459   1.000
    O11     O    0.96942   0.05680   0.59961   1.000
    O12     O    0.13157   0.07378   0.61425   1.000
    O13     O    0.06930   0.09490   0.59900   1.000
    N14     N    0.45638   0.44475   0.81978   1.000
    O15     O    0.39492   0.34639   0.70188   1.000
    O16     O    0.48635   0.39214   0.66816   1.000
    O17     O    0.53594   0.55860   0.89322   1.000
    O18     O    0.37407   0.57488   0.87817   1.000
    O19     O    0.43682   0.59600   0.89343   1.000
    N20     N    0.79845   0.55538   0.31974   1.000
    O21     O    0.71880   0.44150   0.39318   1.000
    O22     O    0.88064   0.42522   0.37816   1.000
    O23     O    0.81791   0.40410   0.39341   1.000
    O24     O    0.85986   0.65370   0.20185   1.000
    O25     O    0.76842   0.60792   0.16814   1.000
    N26     N    0.29841   0.55534   0.31973   1.000
    O27     O    0.21877   0.44147   0.39318   1.000
    O28     O    0.38062   0.42518   0.37815   1.000
    O29     O    0.31788   0.40407   0.39341   1.000
    O30     O    0.35983   0.65368   0.20185   1.000
    O31     O    0.26839   0.60791   0.16814   1.000
    N32     N    0.95630   0.44471   0.81982   1.000
    O33     O    0.89488   0.34636   0.70189   1.000
    O34     O    0.98630   0.39212   0.66819   1.000
    O35     O    0.03589   0.55858   0.89324   1.000
    O36     O    0.87404   0.57485   0.87819   1.000
    O37     O    0.93678   0.59597   0.89344   1.000
    N38     N    0.20623   0.05700   0.17277   1.000
    O39     O    0.14490   0.15440   0.29079   1.000
    O40     O    0.23506   0.10862   0.32464   1.000
    O41     O    0.28718   0.94329   0.09966   1.000
    O42     O    0.12504   0.92630   0.11427   1.000
    O43     O    0.18729   0.90518   0.09902   1.000
    N44     N    0.70630   0.05696   0.17277   1.000
    O45     O    0.64495   0.15437   0.29078   1.000
    O46     O    0.73510   0.10860   0.32464   1.000
    O47     O    0.78722   0.94326   0.09966   1.000
    O48     O    0.62508   0.92627   0.11427   1.000
    O49     O    0.68734   0.90514   0.09902   1.000
    N50     N    0.54842   0.94310   0.67269   1.000
    O51     O    0.60971   0.84565   0.79074   1.000
    O52     O    0.51958   0.89144   0.82459   1.000
    O53     O    0.46748   0.05681   0.59962   1.000
    O54     O    0.56738   0.09490   0.59899   1.000
    O55     O    0.62965   0.07379   0.61424   1.000
loop_
    _geom_bond_atom_site_label_1
    _geom_bond_atom_site_label_2
    _geom_bond_distance
    _geom_bond_site_symmetry_2
    _ccdc_geom_bond_type
    N8     O9        2.40340      .   S
    Zr1    O9        3.52016      .   S
    N8     O10       2.45955      .   S
    Zr6    O10       3.49566  1_654   S
    N8     O11       2.23931  1_465   S
    Zr4    O11       3.20807      .   S
    N8     O12       2.30018  1_565   S
    Zr5    O12       3.11028      .   S
    N8     O13       2.48333  1_565   S
    Zr3    O13       3.51771      .   S
    N14    O15       2.40851      .   S
    Zr5    O15       3.52432      .   S
    N14    O16       2.46077      .   S
    Zr2    O16       3.50098      .   S
    N14    O17       2.21063      .   S
    Zr0    O17       3.15461      .   S
    N14    O18       2.32520      .   S
    Zr1    O18       3.15107      .   S
    N14    O19       2.48247      .   S
    Zr7    O19       3.51250  1_554   S
    N20    O21       2.21225      .   S
    Zr2    O21       3.15724      .   S
    N20    O22       2.32473      .   S
    Zr3    O22       3.14984  1_455   S
    N20    O23       2.48287      .   S
    Zr4    O23       3.51324      .   S
    N20    O24       2.40861      .   S
    Zr6    O24       3.52457      .   S
    N20    O25       2.45998      .   S
    Zr0    O25       3.49999  1_556   S
    N26    O27       2.21198      .   S
    Zr3    O27       3.15687      .   S
    N26    O28       2.32478      .   S
    Zr2    O28       3.14993      .   S
    N26    O29       2.48278      .   S
    Zr5    O29       3.51302      .   S
    N26    O30       2.40872      .   S
    Zr7    O30       3.52471      .   S
    N26    O31       2.45998      .   S
    Zr1    O31       3.49999  1_556   S
    N32    O33       2.40848      .   S
    Zr4    O33       3.52422      .   S
    N32    O34       2.46084      .   S
    Zr3    O34       3.50108  1_455   S
    N32    O35       2.21091  1_655   S
    Zr1    O35       3.15524      .   S
    N32    O36       2.32499      .   S
    Zr0    O36       3.15059      .   S
    N32    O37       2.48251      .   S
    Zr6    O37       3.51256  1_554   S
    N38    O39       2.41090      .   S
    Zr3    O39       3.52810      .   S
    N38    O40       2.45532      .   S
    Zr5    O40       3.48900      .   S
    N38    O41       2.22958  1_545   S
    Zr7    O41       3.19440      .   S
    N38    O42       2.30959  1_545   S
    Zr6    O42       3.12485  1_655   S
    N38    O43       2.48543  1_545   S
    Zr1    O43       3.51679  1_556   S
    N44    O45       2.41101      .   S
    Zr2    O45       3.52823      .   S
    N44    O46       2.45529      .   S
    Zr4    O46       3.48890      .   S
    N44    O47       2.22931  1_545   S
    Zr6    O47       3.19392      .   S
    N44    O48       2.30960  1_545   S
    Zr7    O48       3.12492      .   S
    N44    O49       2.48538  1_545   S
    Zr0    O49       3.51665  1_556   S
    N50    O51       2.41077      .   S
    Zr0    O51       3.52783      .   S
    N50    O52       2.45630      .   S
    Zr7    O52       3.49055  1_554   S
    N50    O53       2.22867  1_565   S
    Zr5    O53       3.19305      .   S
    N50    O54       2.48510  1_565   S
    Zr2    O54       3.51603      .   S
    N50    O55       2.30988  1_565   S
    Zr4    O55       3.12565      .   S
