# CIF file generated by openbabel 2.4.90, see http://openbabel.sf.net
data_I
_chemical_name_common ''
_cell_length_a 12.119
_cell_length_b 14.542
_cell_length_c 15.229
_cell_angle_alpha 90.002
_cell_angle_beta 90.035
_cell_angle_gamma 90.592
_space_group_name_H-M_alt 'P 1'
_space_group_name_Hall 'P 1'
loop_
    _symmetry_equiv_pos_as_xyz
    x,y,z
loop_
    _atom_site_label
    _atom_site_type_symbol
    _atom_site_fract_x
    _atom_site_fract_y
    _atom_site_fract_z
    _atom_site_occupancy
    N0      N    0.05228   0.94310   0.67270   1.000
    N1      N    0.45638   0.44475   0.81978   1.000
    N2      N    0.79845   0.55538   0.31974   1.000
    N3      N    0.29841   0.55534   0.31973   1.000
    N4      N    0.95630   0.44471   0.81982   1.000
    N5      N    0.20623   0.05700   0.17277   1.000
    N6      N    0.70630   0.05696   0.17277   1.000
    N7      N    0.54842   0.94310   0.67269   1.000
    Zr8     Zr   0.30079   0.20751   0.52700   1.000
    O9      O    0.30934   0.30579   0.46021   1.000
    O10     O    0.26792   0.15806   0.42582   1.000
    O11     O    0.38414   0.13216   0.56331   1.000
    O12     O    0.34786   0.27695   0.61444   1.000
    O13     O    0.21618   0.14065   0.57063   1.000
    Zr14    Zr   0.55174   0.29197   0.46598   1.000
    O15     O    0.59834   0.22317   0.37838   1.000
    O16     O    0.46618   0.35858   0.42206   1.000
    O17     O    0.63527   0.36673   0.42958   1.000
    O18     O    0.51904   0.34205   0.56707   1.000
    O19     O    0.55956   0.19344   0.53248   1.000
    Zr20    Zr   0.70291   0.70804   0.96598   1.000
    O21     O    0.78847   0.64145   0.92208   1.000
    O22     O    0.65631   0.77685   0.87836   1.000
    O23     O    0.61942   0.63332   0.92960   1.000
    O24     O    0.69512   0.80659   0.03250   1.000
    O25     O    0.73566   0.65798   0.06706   1.000
    Zr26    Zr   0.95389   0.79255   0.02700   1.000
    O27     O    0.94533   0.69426   0.96022   1.000
    O28     O    0.03946   0.85943   0.07063   1.000
    O29     O    0.87055   0.86790   0.06333   1.000
    O30     O    0.98770   0.84200   0.92579   1.000
    O31     O    0.90687   0.72313   0.11442   1.000
    Zr32    Zr   0.05172   0.29199   0.46599   1.000
    O33     O    0.01901   0.34205   0.56709   1.000
    O34     O    0.13525   0.36673   0.42959   1.000
    O35     O    0.09831   0.22319   0.37839   1.000
    O36     O    0.06051   0.19345   0.53249   1.000
    O37     O    0.96618   0.35860   0.42208   1.000
    Zr38    Zr   0.45388   0.79255   0.02701   1.000
    O39     O    0.40685   0.72312   0.11443   1.000
    O40     O    0.37053   0.86792   0.06333   1.000
    O41     O    0.48673   0.84200   0.92580   1.000
    O42     O    0.44535   0.69428   0.96022   1.000
    O43     O    0.53948   0.85941   0.07064   1.000
    Zr44    Zr   0.80081   0.20751   0.52699   1.000
    O45     O    0.80936   0.30581   0.46020   1.000
    O46     O    0.71523   0.14065   0.57062   1.000
    O47     O    0.76795   0.15805   0.42581   1.000
    O48     O    0.84784   0.27693   0.61444   1.000
    O49     O    0.88511   0.13215   0.56330   1.000
    Zr50    Zr   0.20290   0.70806   0.96598   1.000
    O51     O    0.11939   0.63332   0.92961   1.000
    O52     O    0.23564   0.65799   0.06706   1.000
    O53     O    0.15727   0.77686   0.87836   1.000
    O54     O    0.28849   0.64147   0.92208   1.000
    O55     O    0.19510   0.80662   0.03250   1.000
loop_
    _geom_bond_atom_site_label_1
    _geom_bond_atom_site_label_2
    _geom_bond_distance
    _geom_bond_site_symmetry_2
    _ccdc_geom_bond_type
    Zr8    O9        1.75651      .   S
    N3     O9        4.21588      .   S
    Zr8    O10       1.74450      .   S
    N5     O10       4.18859      .   S
    Zr8    O11       1.59653      .   S
    N7     O11       3.79560  1_565   S
    Zr8    O12       1.76216      .   S
    N1     O12       4.17028      .   S
    Zr8    O13       1.55514      .   S
    N0     O13       3.80798  1_565   S
    Zr14   O15       1.76412      .   S
    N6     O15       4.17479      .   S
    Zr14   O16       1.57497      .   S
    N3     O16       3.85572      .   S
    Zr14   O17       1.57862      .   S
    N2     O17       3.75867      .   S
    Zr14   O18       1.75049      .   S
    N1     O18       4.20056      .   S
    Zr14   O19       1.75801      .   S
    N7     O19       4.22142  1_565   S
    Zr20   O21       1.57529      .   S
    N4     O21       3.85630      .   S
    Zr20   O22       1.76392      .   S
    N7     O22       4.17434      .   S
    Zr20   O23       1.57730      .   S
    N1     O23       3.75559      .   S
    Zr20   O24       1.75833  1_556   S
    N6     O24       4.22204  1_545   S
    Zr20   O25       1.74999  1_556   S
    N2     O25       4.19924      .   S
    Zr26   O27       1.75628  1_554   S
    N4     O27       4.21535      .   S
    Zr26   O28       1.56242  1_655   S
    N5     O28       3.82547  1_545   S
    Zr26   O29       1.59696      .   S
    N6     O29       3.79671  1_545   S
    Zr26   O30       1.74783  1_554   S
    N0     O30       4.19646  1_455   S
    Zr26   O31       1.76228      .   S
    N2     O31       4.17052      .   S
    Zr32   O33       1.75054      .   S
    N4     O33       4.20068  1_655   S
    Zr32   O34       1.57843      .   S
    N3     O34       3.75819      .   S
    Zr32   O35       1.76405      .   S
    N5     O35       4.17461      .   S
    Zr32   O36       1.75886      .   S
    N0     O36       4.22091  1_565   S
    Zr32   O37       1.57492  1_455   S
    N2     O37       3.85563      .   S
    Zr38   O39       1.76235      .   S
    N3     O39       4.17069      .   S
    Zr38   O40       1.59720      .   S
    N5     O40       3.79725  1_545   S
    Zr38   O41       1.74527  1_554   S
    N7     O41       4.19040      .   S
    Zr38   O42       1.75625  1_554   S
    N1     O42       4.21527      .   S
    Zr38   O43       1.56246      .   S
    N6     O43       3.82551  1_545   S
    Zr44   O45       1.75662      .   S
    N2     O45       4.21609      .   S
    Zr44   O46       1.56282      .   S
    N7     O46       3.82618  1_565   S
    Zr44   O47       1.74445      .   S
    N6     O47       4.18851      .   S
    Zr44   O48       1.76211      .   S
    N4     O48       4.17021      .   S
    Zr44   O49       1.60404      .   S
    N0     O49       3.81445  1_465   S
    Zr50   O51       1.57762      .   S
    N4     O51       3.75622  1_655   S
    Zr50   O52       1.74999  1_556   S
    N3     O52       4.19924      .   S
    Zr50   O53       1.76008      .   S
    N0     O53       4.16309      .   S
    Zr50   O54       1.57553      .   S
    N1     O54       3.85677      .   S
    Zr50   O55       1.75840  1_556   S
    N5     O55       4.22218  1_545   S
