# CIF file generated by openbabel 2.4.90, see http://openbabel.sf.net
data_I
_chemical_name_common ''
_cell_length_a 13.07
_cell_length_b 24.209
_cell_length_c 15.042
_cell_angle_alpha 90.033
_cell_angle_beta 90.136
_cell_angle_gamma 90.336
_space_group_name_H-M_alt 'P 1'
_space_group_name_Hall 'P 1'
loop_
    _symmetry_equiv_pos_as_xyz
    x,y,z
loop_
    _atom_site_label
    _atom_site_type_symbol
    _atom_site_fract_x
    _atom_site_fract_y
    _atom_site_fract_z
    _atom_site_occupancy
    Zn0     Zn   0.73341   0.97712   0.60571   1.000
    Zn1     Zn   0.15515   0.93282   0.00000   1.000
    Zn2     Zn   0.26254   0.02330   0.10661   1.000
    Zn3     Zn   0.65319   0.56917   0.52327   1.000
    Zn4     Zn   0.76059   0.47921   0.61290   1.000
    Zn5     Zn   0.34262   0.43296   0.00000   1.000
    Zn6     Zn   0.23507   0.52302   0.11035   1.000
    Pt7     Pt   0.98984   0.25028   0.86598   1.000
    Zn8     Zn   0.84373   0.06736   0.51905   1.000
    Pt9     Pt   0.00000   0.75039   0.36525   1.000
    Pt10    Pt   0.50892   0.75113   0.86884   1.000
    Pt11    Pt   0.49134   0.25023   0.36724   1.000
    Cl12    Cl   0.01133   0.26003   0.71172   1.000
    Cl13    Cl   0.97544   0.24227   0.02047   1.000
    Cl14    Cl   0.98656   0.74048   0.21080   1.000
    Cl15    Cl   0.02063   0.75871   0.51986   1.000
    Cl16    Cl   0.48698   0.75937   0.71427   1.000
    Cl17    Cl   0.52341   0.74444   0.02349   1.000
    Cl18    Cl   0.51391   0.24215   0.21280   1.000
    Cl19    Cl   0.47602   0.25666   0.52186   1.000
loop_
    _geom_bond_atom_site_label_1
    _geom_bond_atom_site_label_2
    _geom_bond_distance
    _geom_bond_site_symmetry_2
    _ccdc_geom_bond_type
    Cl13   Pt7       2.33997  1_554   S
    Cl17   Pt10      2.33927  1_554   S
    Cl14   Pt9       2.34155  1_655   S
    Cl18   Pt11      2.35063      .   S
    Pt9    Cl15      2.34897      .   S
    Pt11   Cl19      2.34004      .   S
    Cl12   Pt7       2.34984  1_455   S
    Cl16   Pt10      2.35074      .   S
