# CIF file generated by openbabel 2.4.90, see http://openbabel.sf.net
data_I
_chemical_name_common ''
_cell_length_a 13.07
_cell_length_b 24.209
_cell_length_c 15.042
_cell_angle_alpha 90.033
_cell_angle_beta 90.136
_cell_angle_gamma 90.336
_space_group_name_H-M_alt 'P 1'
_space_group_name_Hall 'P 1'
loop_
    _symmetry_equiv_pos_as_xyz
    x,y,z
loop_
    _atom_site_label
    _atom_site_type_symbol
    _atom_site_fract_x
    _atom_site_fract_y
    _atom_site_fract_z
    _atom_site_occupancy
    N0      N    0.99719   0.08430   0.83225   1.000
    N1      N    0.99465   0.41564   0.86778   1.000
    N2      N    0.99923   0.91630   0.33115   1.000
    N3      N    0.50156   0.58494   0.83756   1.000
    N4      N    0.49492   0.41668   0.33779   1.000
    N5      N    0.00004   0.58524   0.36851   1.000
    N6      N    0.50357   0.91626   0.86602   1.000
    N7      N    0.49512   0.08387   0.36642   1.000
    Zr8     Zr   0.00240   0.74986   0.36530   1.000
    O9      O    0.00121   0.69836   0.36705   1.000
    O10     O    0.00101   0.80210   0.35526   1.000
    Zr11    Zr   0.50644   0.75165   0.86887   1.000
    O12     O    0.50738   0.80316   0.86883   1.000
    O13     O    0.50511   0.69934   0.85977   1.000
    Zr14    Zr   0.49376   0.24968   0.36730   1.000
    O15     O    0.49398   0.30209   0.35871   1.000
    O16     O    0.49252   0.19787   0.36772   1.000
    Zr17    Zr   0.73341   0.97712   0.60571   1.000
    O18     O    0.66970   0.95485   0.68107   1.000
    O19     O    0.66123   0.00666   0.53422   1.000
    O20     O    0.81272   0.95749   0.52625   1.000
    O21     O    0.81386   0.00943   0.67161   1.000
    Zr22    Zr   0.15515   0.93282   0.00000   1.000
    O23     O    0.25914   0.92554   0.96649   1.000
    O24     O    0.10846   0.92439   0.09775   1.000
    O25     O    0.10786   0.97739   0.95122   1.000
    Zr26    Zr   0.34262   0.43296   0.00000   1.000
    O27     O    0.38842   0.42479   0.10004   1.000
    O28     O    0.23873   0.42541   0.96743   1.000
    O29     O    0.39013   0.47770   0.95307   1.000
    Zr30    Zr   0.84373   0.06736   0.51905   1.000
    O31     O    0.88994   0.07585   0.60992   1.000
    O32     O    0.73951   0.07462   0.47899   1.000
    O33     O    0.88995   0.02297   0.46244   1.000
    Zr34    Zr   0.26254   0.02330   0.10661   1.000
    O35     O    0.18347   0.04310   0.02721   1.000
    O36     O    0.33550   0.99264   0.03314   1.000
    O37     O    0.32725   0.04563   0.18161   1.000
    O38     O    0.18222   0.99107   0.17189   1.000
    Zr39    Zr   0.65319   0.56917   0.52327   1.000
    O40     O    0.60530   0.52426   0.46810   1.000
    O41     O    0.75668   0.57638   0.48164   1.000
    O42     O    0.60807   0.57724   0.61469   1.000
    Zr43    Zr   0.99220   0.25086   0.86606   1.000
    O44     O    0.99121   0.30239   0.86741   1.000
    O45     O    0.99359   0.19858   0.85612   1.000
    Zr46    Zr   0.23507   0.52302   0.11035   1.000
    O47     O    0.16975   0.54561   0.18496   1.000
    O48     O    0.31400   0.49098   0.17682   1.000
    O49     O    0.16236   0.49222   0.03591   1.000
    O50     O    0.31453   0.54308   0.03146   1.000
    Zr51    Zr   0.76059   0.47921   0.61290   1.000
    O52     O    0.83308   0.50971   0.54009   1.000
    O53     O    0.82564   0.45603   0.68637   1.000
    O54     O    0.68135   0.45897   0.53328   1.000
    O55     O    0.68180   0.51095   0.67840   1.000
loop_
    _geom_bond_atom_site_label_1
    _geom_bond_atom_site_label_2
    _geom_bond_distance
    _geom_bond_site_symmetry_2
    _ccdc_geom_bond_type
    Zr8    O9        1.24712      .   S
    N5     O9        2.73856      .   S
    Zr8    O10       1.27390      .   S
    N2     O10       2.78900  1_655   S
    Zr11   O12       1.24708      .   S
    N6     O12       2.73905      .   S
    Zr11   O13       1.27372      .   S
    N3     O13       2.78931      .   S
    Zr14   O15       1.27533      .   S
    N4     O15       2.79211      .   S
    Zr14   O16       1.25434      .   S
    N7     O16       2.76025      .   S
    Zr17   O18       1.50626      .   S
    N6     O18       3.65177      .   S
    Zr17   O19       1.60063  1_565   S
    N7     O19       3.82164      .   S
    Zr17   O20       1.65526      .   S
    N2     O20       3.95074      .   S
    Zr17   O21       1.63845  1_565   S
    N0     O21       3.84476      .   S
    Zr22   O23       1.46231  1_554   S
    N6     O23       3.54554      .   S
    Zr22   O24       1.60601      .   S
    N2     O24       3.79774  1_655   S
    Zr22   O25       1.44615  1_554   S
    N0     O25       3.46851  1_645   S
    Zr26   O27       1.63072      .   S
    N4     O27       3.83998      .   S
    Zr26   O28       1.45290  1_554   S
    N1     O28       3.52812  1_655   S
    Zr26   O29       1.43253  1_554   S
    N3     O29       3.44295      .   S
    Zr30   O31       1.50652      .   S
    N0     O31       3.62829      .   S
    Zr30   O32       1.49951      .   S
    N7     O32       3.61982      .   S
    Zr30   O33       1.50124      .   S
    N2     O33       3.55801  1_565   S
    Zr34   O35       1.65073      .   S
    N0     O35       3.93962  1_656   S
    Zr34   O36       1.64140  1_545   S
    N6     O36       3.82515  1_556   S
    Zr34   O37       1.50646      .   S
    N7     O37       3.65284      .   S
    Zr34   O38       1.63440  1_545   S
    N2     O38       3.83617  1_655   S
    Zr39   O40       1.50045      .   S
    N4     O40       3.55573      .   S
    Zr39   O41       1.50108      .   S
    N5     O41       3.61630  1_455   S
    Zr39   O42       1.51060      .   S
    N3     O42       3.63800      .   S
    Zr43   O44       1.24779      .   S
    N1     O44       2.74163      .   S
    Zr43   O45       1.27464      .   S
    N0     O45       2.79025      .   S
    Zr46   O47       1.51558      .   S
    N5     O47       3.67608      .   S
    Zr46   O48       1.63430      .   S
    N4     O48       3.83627      .   S
    Zr46   O49       1.64264      .   S
    N1     O49       3.81563  1_656   S
    Zr46   O50       1.65023      .   S
    N3     O50       3.93928  1_556   S
    Zr51   O52       1.62476      .   S
    N5     O52       3.84091  1_455   S
    Zr51   O53       1.50365      .   S
    N1     O53       3.64448      .   S
    Zr51   O54       1.65351      .   S
    N4     O54       3.94548      .   S
    Zr51   O55       1.62327      .   S
    N3     O55       3.81581      .   S
