# CIF file generated by openbabel 2.4.90, see http://openbabel.sf.net
data_I
_chemical_name_common ''
_cell_length_a 8.8355
_cell_length_b 8.8355
_cell_length_c 13.703
_cell_angle_alpha 95.653
_cell_angle_beta 95.661
_cell_angle_gamma 92.63
_space_group_name_H-M_alt 'P 1'
_space_group_name_Hall 'P 1'
loop_
    _symmetry_equiv_pos_as_xyz
    x,y,z
loop_
    _atom_site_label
    _atom_site_type_symbol
    _atom_site_fract_x
    _atom_site_fract_y
    _atom_site_fract_z
    _atom_site_occupancy
    N0      N    0.95745   0.54600   0.27870   1.000
    N1      N    0.23597   0.26697   0.44740   1.000
    N2      N    0.45399   0.04255   0.22132   1.000
    N3      N    0.73297   0.76392   0.05259   1.000
    N4      N    0.04247   0.45394   0.72131   1.000
    N5      N    0.76394   0.73298   0.55261   1.000
    N6      N    0.54591   0.95740   0.77869   1.000
    N7      N    0.26694   0.23603   0.94742   1.000
