# CIF file generated by openbabel 2.4.90, see http://openbabel.sf.net
data_I
_chemical_name_common ''
_cell_length_a 8.8355
_cell_length_b 8.8355
_cell_length_c 13.703
_cell_angle_alpha 95.653
_cell_angle_beta 95.661
_cell_angle_gamma 92.63
_space_group_name_H-M_alt 'P 1'
_space_group_name_Hall 'P 1'
loop_
    _symmetry_equiv_pos_as_xyz
    x,y,z
loop_
    _atom_site_label
    _atom_site_type_symbol
    _atom_site_fract_x
    _atom_site_fract_y
    _atom_site_fract_z
    _atom_site_occupancy
    H0      H    0.58820   0.54486   0.42385   1.000
    H1      H    0.38376   0.53955   0.41775   1.000
    H2      H    0.23337   0.38945   0.28478   1.000
    H3      H    0.32550   0.28254   0.19168   1.000
    H4      H    0.33742   0.76065   0.20678   1.000
    H5      H    0.59882   0.28990   0.19995   1.000
    H6      H    0.45515   0.41179   0.07614   1.000
    H7      H    0.46047   0.61623   0.08223   1.000
    H8      H    0.61055   0.76662   0.21518   1.000
    H9      H    0.71748   0.67451   0.30831   1.000
    H10     H    0.23934   0.66259   0.29315   1.000
    H11     H    0.71011   0.40119   0.30007   1.000
    H12     H    0.41172   0.45510   0.57616   1.000
    H13     H    0.61616   0.46042   0.58227   1.000
    H14     H    0.76654   0.61052   0.71523   1.000
    H15     H    0.67442   0.71743   0.80833   1.000
    H16     H    0.66251   0.23932   0.79323   1.000
    H17     H    0.40109   0.71006   0.80006   1.000
    H18     H    0.54477   0.58817   0.92387   1.000
    H19     H    0.53947   0.38373   0.91778   1.000
    H20     H    0.38938   0.23334   0.78483   1.000
    H21     H    0.28246   0.32544   0.69170   1.000
    H22     H    0.76059   0.33738   0.70686   1.000
    H23     H    0.28982   0.59877   0.69994   1.000
    C24     C    0.48180   0.53726   0.37469   1.000
    C25     C    0.33168   0.38794   0.24179   1.000
    C26     C    0.46275   0.51819   0.12529   1.000
    C27     C    0.61207   0.66833   0.25819   1.000
    C28     C    0.51812   0.46271   0.62532   1.000
    C29     C    0.66823   0.61203   0.75822   1.000
    C30     C    0.53717   0.48177   0.87472   1.000
    C31     C    0.38786   0.33164   0.74183   1.000
    C32     C    0.33752   0.66248   0.24997   1.000
    C33     C    0.60514   0.39487   0.25001   1.000
    C34     C    0.66241   0.33749   0.75004   1.000
    C35     C    0.39479   0.60509   0.75001   1.000
    N36     N    0.47339   0.39357   0.30905   1.000
    N37     N    0.48024   0.67127   0.31731   1.000
    N38     N    0.60643   0.52661   0.19096   1.000
    N39     N    0.32874   0.51976   0.18265   1.000
    N40     N    0.52653   0.60640   0.69096   1.000
    N41     N    0.51969   0.32869   0.68270   1.000
    N42     N    0.39349   0.47335   0.80906   1.000
    N43     N    0.67119   0.48021   0.81736   1.000
loop_
    _geom_bond_atom_site_label_1
    _geom_bond_atom_site_label_2
    _geom_bond_distance
    _geom_bond_site_symmetry_2
    _ccdc_geom_bond_type
    H6     C26       1.09656      .   S
    H7     C26       1.09495      .   S
    C26    N39       1.48428      .   S
    C26    N38       1.47634      .   S
    N39    C25       1.48280      .   S
    N39    C32       1.48151      .   S
    N38    C33       1.48186      .   S
    N38    C27       1.47548      .   S
    H3     C25       1.09721      .   S
    H5     C33       1.09369      .   S
    H4     C32       1.09716      .   S
    H8     C27       1.09637      .   S
    C25    H2        1.09639      .   S
    C25    N36       1.47550      .   S
    C32    H10       1.09717      .   S
    C32    N37       1.48151      .   S
    C33    H11       1.09367      .   S
    C33    N36       1.48190      .   S
    C27    H9        1.09722      .   S
    C27    N37       1.48279      .   S
    N36    C24       1.47634      .   S
    N37    C24       1.48433      .   S
    C24    H1        1.09493      .   S
    C24    H0        1.09658      .   S
    H12    C28       1.09658      .   S
    H13    C28       1.09495      .   S
    C28    N41       1.48431      .   S
    C28    N40       1.47634      .   S
    N41    C31       1.48280      .   S
    N41    C34       1.48151      .   S
    N40    C35       1.48189      .   S
    N40    C29       1.47548      .   S
    H21    C31       1.09720      .   S
    H23    C35       1.09368      .   S
    H22    C34       1.09716      .   S
    H14    C29       1.09638      .   S
    C31    H20       1.09639      .   S
    C31    N42       1.47546      .   S
    C35    H17       1.09368      .   S
    C35    N42       1.48186      .   S
    C34    H16       1.09717      .   S
    C34    N43       1.48151      .   S
    C29    H15       1.09721      .   S
    C29    N43       1.48280      .   S
    N42    C30       1.47633      .   S
    N43    C30       1.48430      .   S
    C30    H19       1.09496      .   S
    C30    H18       1.09656      .   S
