# CIF file generated by openbabel 2.4.90, see http://openbabel.sf.net
data_I
_chemical_name_common ''
_cell_length_a 8.8355
_cell_length_b 8.8355
_cell_length_c 13.703
_cell_angle_alpha 95.653
_cell_angle_beta 95.661
_cell_angle_gamma 92.63
_space_group_name_H-M_alt 'P 1'
_space_group_name_Hall 'P 1'
loop_
    _symmetry_equiv_pos_as_xyz
    x,y,z
loop_
    _atom_site_label
    _atom_site_type_symbol
    _atom_site_fract_x
    _atom_site_fract_y
    _atom_site_fract_z
    _atom_site_occupancy
    N0      N    0.27789   0.72909   0.53735   1.000
    N1      N    0.27077   0.72205   0.96262   1.000
    N2      N    0.72914   0.27790   0.03739   1.000
    N3      N    0.72202   0.27086   0.46266   1.000
    Zr4     Zr   0.49995   0.99997   0.00000   1.000
    O5      O    0.39575   0.87489   0.98316   1.000
    O6      O    0.60417   0.12506   0.01685   1.000
    Zr7     Zr   0.99997   0.49999   0.00001   1.000
    O8      O    0.87947   0.41975   0.02698   1.000
    O9      O    0.12045   0.58021   0.97303   1.000
    Zr10    Zr   0.49997   0.99999   0.50001   1.000
    O11     O    0.41974   0.87946   0.52696   1.000
    O12     O    0.58019   0.12050   0.47305   1.000
    Zr13    Zr   0.99996   0.49997   0.50000   1.000
    O14     O    0.12505   0.60416   0.51683   1.000
    O15     O    0.87487   0.39579   0.48318   1.000
loop_
    _geom_bond_atom_site_label_1
    _geom_bond_atom_site_label_2
    _geom_bond_distance
    _geom_bond_site_symmetry_2
    _ccdc_geom_bond_type
    Zr4    O5        1.39172  1_554   S
    N1     O5        1.68790      .   S
    Zr4    O6        1.39174  1_565   S
    N2     O6        1.68791      .   S
    Zr7    O8        1.35376      .   S
    N2     O8        1.80981      .   S
    Zr7    O9        1.35363  1_654   S
    N1     O9        1.80965      .   S
    Zr10   O11       1.35385      .   S
    N0     O11       1.80987      .   S
    Zr10   O12       1.35373  1_565   S
    N3     O12       1.80972      .   S
    Zr13   O14       1.39160  1_655   S
    N0     O14       1.68777      .   S
    Zr13   O15       1.39161      .   S
    N3     O15       1.68778      .   S
