# CIF file generated by openbabel 2.4.90, see http://openbabel.sf.net
data_I
_chemical_name_common ''
_cell_length_a 8.8355
_cell_length_b 8.8355
_cell_length_c 13.703
_cell_angle_alpha 95.653
_cell_angle_beta 95.661
_cell_angle_gamma 92.63
_space_group_name_H-M_alt 'P 1'
_space_group_name_Hall 'P 1'
loop_
    _symmetry_equiv_pos_as_xyz
    x,y,z
loop_
    _atom_site_label
    _atom_site_type_symbol
    _atom_site_fract_x
    _atom_site_fract_y
    _atom_site_fract_z
    _atom_site_occupancy
    N0      N    0.95745   0.54600   0.27870   1.000
    N1      N    0.47182   0.52819   0.24999   1.000
    N2      N    0.52811   0.47177   0.75002   1.000
    N3      N    0.27789   0.72909   0.53735   1.000
    N4      N    0.04247   0.45394   0.72131   1.000
    N5      N    0.26694   0.23603   0.94742   1.000
    N6      N    0.27077   0.72205   0.96262   1.000
    N7      N    0.54591   0.95740   0.77869   1.000
    N8      N    0.76394   0.73298   0.55261   1.000
    N9      N    0.23597   0.26697   0.44740   1.000
    N10     N    0.72914   0.27790   0.03739   1.000
    N11     N    0.45399   0.04255   0.22132   1.000
    N12     N    0.73297   0.76392   0.05259   1.000
    N13     N    0.72202   0.27086   0.46266   1.000
    Zr14    Zr   0.49995   0.99997   0.00000   1.000
    O15     O    0.47886   0.01907   0.09998   1.000
    O16     O    0.39402   0.10615   0.97642   1.000
    O17     O    0.52105   0.98089   0.90003   1.000
    O18     O    0.39575   0.87489   0.98316   1.000
    O19     O    0.60417   0.12506   0.01685   1.000
    O20     O    0.60589   0.89380   0.02359   1.000
    Zr21    Zr   0.99997   0.49999   0.00001   1.000
    O22     O    0.87947   0.41975   0.02698   1.000
    O23     O    0.12045   0.58021   0.97303   1.000
    Zr24    Zr   0.49997   0.99999   0.50001   1.000
    O25     O    0.41974   0.87946   0.52696   1.000
    O26     O    0.58019   0.12050   0.47305   1.000
    Zr27    Zr   0.99996   0.49997   0.50000   1.000
    O28     O    0.01902   0.47885   0.59998   1.000
    O29     O    0.10612   0.39405   0.47641   1.000
    O30     O    0.12505   0.60416   0.51683   1.000
    O31     O    0.87487   0.39579   0.48318   1.000
    O32     O    0.98090   0.52110   0.40003   1.000
    O33     O    0.89379   0.60590   0.52360   1.000
loop_
    _geom_bond_atom_site_label_1
    _geom_bond_atom_site_label_2
    _geom_bond_distance
    _geom_bond_site_symmetry_2
    _ccdc_geom_bond_type
    Zr14   O15       1.39562  1_565   S
    N11    O15       1.69237      .   S
    Zr14   O16       1.39326  1_564   S
    N5     O16       1.68980      .   S
    Zr14   O17       1.39560  1_554   S
    N7     O17       1.69235      .   S
    Zr14   O18       1.39172  1_554   S
    N6     O18       1.68790      .   S
    Zr14   O19       1.39174  1_565   S
    N10    O19       1.68791      .   S
    Zr14   O20       1.39326      .   S
    N12    O20       1.68981      .   S
    Zr21   O22       1.35376      .   S
    N10    O22       1.80981      .   S
    Zr21   O23       1.35363  1_654   S
    N6     O23       1.80965      .   S
    Zr24   O25       1.35385      .   S
    N3     O25       1.80987      .   S
    Zr24   O26       1.35373  1_565   S
    N13    O26       1.80972      .   S
    Zr27   O28       1.39557  1_655   S
    N4     O28       1.69232      .   S
    Zr27   O29       1.39323  1_655   S
    N9     O29       1.68978      .   S
    Zr27   O30       1.39160  1_655   S
    N3     O30       1.68777      .   S
    Zr27   O31       1.39161      .   S
    N13    O31       1.68778      .   S
    Zr27   O32       1.39557      .   S
    N0     O32       1.69232      .   S
    Zr27   O33       1.39325      .   S
    N8     O33       1.68980      .   S
