# CIF file generated by openbabel 2.4.90, see http://openbabel.sf.net
data_I
_chemical_name_common ''
_cell_length_a 15.339
_cell_length_b 15.305
_cell_length_c 15.334
_cell_angle_alpha 102.202
_cell_angle_beta 102.574
_cell_angle_gamma 102.334
_space_group_name_H-M_alt 'P 1'
_space_group_name_Hall 'P 1'
loop_
    _symmetry_equiv_pos_as_xyz
    x,y,z
loop_
    _atom_site_label
    _atom_site_type_symbol
    _atom_site_fract_x
    _atom_site_fract_y
    _atom_site_fract_z
    _atom_site_occupancy
    H0      H    0.51460   0.70000   0.98460   1.000
    H1      H    0.98532   0.51545   0.70055   1.000
    H2      H    0.70043   0.98529   0.51594   1.000
    H3      H    0.29973   0.48438   0.01563   1.000
    H4      H    0.48413   0.01455   0.29960   1.000
    H5      H    0.01470   0.29966   0.48532   1.000
    H6      H    0.48535   0.29996   0.01532   1.000
    H7      H    0.01468   0.48447   0.29939   1.000
    H8      H    0.29963   0.01482   0.48403   1.000
    H9      H    0.70029   0.51556   0.98436   1.000
    H10     H    0.51580   0.98532   0.70034   1.000
    H11     H    0.98530   0.70025   0.51463   1.000
    H12     H    0.00017   0.25137   0.74899   1.000
    H13     H    0.74777   0.00003   0.25221   1.000
    H14     H    0.74866   0.25171   0.00000   1.000
    H15     H    0.99985   0.74857   0.25098   1.000
    H16     H    0.25218   1.00000   0.74771   1.000
    C17     C    0.42320   0.83110   0.98788   1.000
    C18     C    0.38683   0.73377   0.99215   1.000
    C19     C    0.44511   0.67496   0.99131   1.000
    C20     C    0.98838   0.42358   0.83148   1.000
    C21     C    0.99254   0.38724   0.73435   1.000
    C22     C    0.99169   0.44572   0.67556   1.000
    C23     C    0.83108   0.98849   0.42437   1.000
    C24     C    0.73373   0.99248   0.38793   1.000
    C25     C    0.67518   0.99163   0.44617   1.000
    C26     C    0.16875   0.57608   0.01217   1.000
    C27     C    0.26590   0.61244   0.00796   1.000
    C28     C    0.32464   0.55406   0.00889   1.000
    C29     C    0.57558   0.01140   0.16888   1.000
    C30     C    0.61208   0.00742   0.26625   1.000
    C31     C    0.55389   0.00824   0.32480   1.000
    C32     C    0.01187   0.16862   0.57697   1.000
    C33     C    0.00768   0.26591   0.61332   1.000
    C34     C    0.00838   0.32475   0.55492   1.000
    C35     C    0.57674   0.16884   0.01208   1.000
    C36     C    0.61312   0.26616   0.00778   1.000
    C37     C    0.55486   0.32499   0.00864   1.000
    C38     C    0.01160   0.57635   0.16847   1.000
    C39     C    0.00747   0.61269   0.26560   1.000
    C40     C    0.00831   0.55421   0.32439   1.000
    C41     C    0.16891   0.01153   0.57553   1.000
    C42     C    0.26626   0.00755   0.61200   1.000
    C43     C    0.32484   0.00842   0.55379   1.000
    C44     C    0.83123   0.42383   0.98782   1.000
    C45     C    0.73408   0.38748   0.99201   1.000
    C46     C    0.67537   0.44589   0.99110   1.000
    C47     C    0.42433   0.98853   0.83105   1.000
    C48     C    0.38787   0.99255   0.73368   1.000
    C49     C    0.44606   0.99169   0.67509   1.000
    C50     C    0.98812   0.83130   0.42299   1.000
    C51     C    0.99235   0.73403   0.38664   1.000
    C52     C    0.99163   0.67517   0.44503   1.000
    C53     C    0.41484   0.58453   0.00010   1.000
    C54     C    0.00012   0.29699   0.70338   1.000
    C55     C    0.00000   0.41526   0.58523   1.000
    C56     C    0.99997   0.47457   0.52570   1.000
    C57     C    0.70234   1.00000   0.29766   1.000
    C58     C    0.58467   0.99996   0.41540   1.000
    C59     C    0.52551   0.99998   0.47457   1.000
    C60     C    0.70312   0.29729   0.99997   1.000
    C61     C    0.58517   0.41543   0.99987   1.000
    C62     C    0.52574   0.47467   0.99993   1.000
    C63     C    0.99989   0.70295   0.29650   1.000
    C64     C    1.00000   0.58466   0.41470   1.000
    C65     C    0.00000   0.52535   0.47424   1.000
    C66     C    0.29762   0.00002   0.70227   1.000
    C67     C    0.41533   0.00006   0.58456   1.000
    C68     C    0.47451   0.00003   0.52541   1.000
    O69     O    0.50172   0.85083   0.97015   1.000
    O70     O    0.37432   0.88731   0.00449   1.000
    O71     O    0.97040   0.50216   0.85103   1.000
    O72     O    0.00523   0.37452   0.88771   1.000
    O73     O    0.85115   0.97011   0.50276   1.000
    O74     O    0.88694   0.00575   0.37544   1.000
    O75     O    0.14899   0.49744   0.03015   1.000
    O76     O    0.11266   0.62518   0.99519   1.000
    O77     O    0.49712   0.02951   0.14876   1.000
    O78     O    0.62451   0.99428   0.11305   1.000
    O79     O    0.02973   0.14914   0.49850   1.000
    O80     O    0.99521   0.11222   0.62579   1.000
    O81     O    0.49820   0.14910   0.02975   1.000
    O82     O    0.62561   0.11262   0.99545   1.000
    O83     O    0.02971   0.49783   0.14894   1.000
    O84     O    0.99457   0.62534   0.11221   1.000
    O85     O    0.14882   0.02980   0.49700   1.000
    O86     O    0.11306   0.99429   0.62447   1.000
    O87     O    0.85096   0.50238   0.96966   1.000
    O88     O    0.88735   0.37478   0.00493   1.000
    O89     O    0.50281   0.97044   0.85118   1.000
    O90     O    0.37538   0.00561   0.88686   1.000
    O91     O    0.97031   0.85080   0.50146   1.000
    O92     O    0.00469   0.88769   0.37413   1.000
loop_
    _geom_bond_atom_site_label_1
    _geom_bond_atom_site_label_2
    _geom_bond_distance
    _geom_bond_site_symmetry_2
    _ccdc_geom_bond_type
    C53    C28       1.40785      .   S
    C53    C19       1.40745  1_554   S
    O70    C17       1.27806  1_554   S
    O88    C44       1.27832  1_554   S
    C36    C37       1.39766      .   S
    C36    C35       1.49555      .   S
    C36    C60       1.40074  1_554   S
    C27    C28       1.39797      .   S
    C27    C26       1.49572      .   S
    C37    H6        1.08793      .   S
    C37    C61       1.40754  1_554   S
    C28    H3        1.08794      .   S
    C35    O81       1.27965      .   S
    C35    O82       1.27806  1_554   S
    C26    O75       1.27961      .   S
    C26    O76       1.27831  1_554   S
    O84    C38       1.27814  1_655   S
    O78    C29       1.27823  1_565   S
    O77    C29       1.27962      .   S
    O83    C38       1.27969      .   S
    C38    C39       1.49584      .   S
    C29    C30       1.49517      .   S
    H15    C63       1.08666      .   S
    H13    C57       1.08750  1_545   S
    C39    C63       1.40080  1_455   S
    C39    C40       1.39819      .   S
    C30    C57       1.40064  1_545   S
    C30    C31       1.39710      .   S
    C63    C51       1.40194      .   S
    C57    C24       1.40066      .   S
    H7     C40       1.08794      .   S
    H4     C31       1.08785      .   S
    C40    C64       1.40736  1_455   S
    C31    C58       1.40833  1_545   S
    O92    C50       1.27804  1_455   S
    O74    C23       1.27814  1_545   S
    C51    C50       1.49586      .   S
    C51    C52       1.39790      .   S
    C24    C23       1.49533      .   S
    C24    C25       1.39771      .   S
    C64    C52       1.40759      .   S
    C64    C65       1.41705  1_655   S
    C58    C25       1.40789      .   S
    C58    C59       1.41608      .   S
    C50    O91       1.27969      .   S
    C23    O73       1.27965      .   S
    C52    H11       1.08795      .   S
    C25    H2        1.08794      .   S
    C65    C56       1.21899  1_455   S
    C59    C68       1.21869  1_565   S
    H8     C43       1.08802      .   S
    H5     C34       1.08794      .   S
    O85    C41       1.28090      .   S
    O79    C32       1.28008      .   S
    C68    C67       1.41596      .   S
    C56    C55       1.41681  1_655   S
    C43    C67       1.40776      .   S
    C43    C42       1.39766      .   S
    C34    C55       1.40765      .   S
    C34    C33       1.39785      .   S
    C41    C42       1.49535      .   S
    C41    O86       1.27818  1_545   S
    C32    C33       1.49582      .   S
    C32    O80       1.27798  1_455   S
    C67    C49       1.40777  1_545   S
    C55    C22       1.40761  1_455   S
    C42    C66       1.40063      .   S
    C33    C54       1.40087      .   S
    C49    H10       1.08798      .   S
    C49    C48       1.39762      .   S
    C22    H1        1.08792      .   S
    C22    C21       1.39807      .   S
    C66    C48       1.40074  1_545   S
    C66    H16       1.08754  1_545   S
    C54    C21       1.40090  1_455   S
    C54    H12       1.08768      .   S
    C48    C47       1.49527      .   S
    C21    C20       1.49602      .   S
    C47    O89       1.27963      .   S
    C47    O90       1.27816  1_565   S
    C20    O71       1.27970      .   S
    C20    O72       1.27812  1_655   S
    O87    C44       1.27956      .   S
    O69    C17       1.27965      .   S
    H9     C46       1.08796      .   S
    H0     C19       1.08787      .   S
    C44    C45       1.49568      .   S
    C17    C18       1.49550      .   S
    C46    C45       1.39794      .   S
    C46    C61       1.40769      .   S
    C19    C18       1.39766      .   S
    C45    C60       1.40088      .   S
    C61    C62       1.41626      .   S
    C60    H14       1.08757  1_556   S
