# CIF file generated by openbabel 2.4.90, see http://openbabel.sf.net
data_I
_chemical_name_common ''
_cell_length_a 15.339
_cell_length_b 15.305
_cell_length_c 15.334
_cell_angle_alpha 102.202
_cell_angle_beta 102.574
_cell_angle_gamma 102.334
_space_group_name_H-M_alt 'P 1'
_space_group_name_Hall 'P 1'
loop_
    _symmetry_equiv_pos_as_xyz
    x,y,z
loop_
    _atom_site_label
    _atom_site_type_symbol
    _atom_site_fract_x
    _atom_site_fract_y
    _atom_site_fract_z
    _atom_site_occupancy
    Zr0     Zr   0.56808   0.98003   0.98050   1.000
    Zr1     Zr   0.98017   0.56814   0.97995   1.000
    Zr2     Zr   0.98049   0.97980   0.56802   1.000
    Zr3     Zr   0.01980   0.43177   0.02000   1.000
    Zr4     Zr   0.43184   0.01989   0.01942   1.000
    Zr5     Zr   0.01948   0.02014   0.43189   1.000
    O6      O    0.49996   0.99996   0.99996   1.000
    O7      O    0.99999   0.49996   0.99997   1.000
    O8      O    0.99998   0.99997   0.49996   1.000
    N9      N    0.33702   0.66247   0.00005   1.000
    O10     O    0.37005   0.80804   0.00600   1.000
    O11     O    0.19172   0.62956   0.99381   1.000
    O12     O    0.21071   0.56354   0.01256   1.000
    O13     O    0.43596   0.78895   0.98769   1.000
    N14     N    0.49999   0.99999   0.49996   1.000
    O15     O    0.45180   0.00637   0.72655   1.000
    O16     O    0.54814   0.99358   0.27337   1.000
    O17     O    0.72660   0.00647   0.45181   1.000
    O18     O    0.51771   0.98762   0.70790   1.000
    O19     O    0.27338   0.99352   0.54810   1.000
    O20     O    0.70790   0.98747   0.51768   1.000
    O21     O    0.48223   0.01235   0.29203   1.000
    O22     O    0.29207   0.01248   0.48220   1.000
    N23     N    0.66224   0.33817   0.99992   1.000
    O24     O    0.62954   0.19225   0.99395   1.000
    O25     O    0.56363   0.21133   0.01225   1.000
    O26     O    0.80791   0.37072   0.00619   1.000
    O27     O    0.78890   0.43672   0.98736   1.000
    N28     N    1.00000   0.49996   0.49997   1.000
    O29     O    0.98770   0.70763   0.51736   1.000
    O30     O    0.99392   0.27298   0.54844   1.000
    O31     O    0.99368   0.54835   0.27303   1.000
    O32     O    0.98764   0.51756   0.70773   1.000
    O33     O    0.00626   0.45156   0.72691   1.000
    O34     O    0.01230   0.29230   0.48258   1.000
    O35     O    0.01238   0.48238   0.29222   1.000
    O36     O    0.00604   0.72694   0.45149   1.000
loop_
    _geom_bond_atom_site_label_1
    _geom_bond_atom_site_label_2
    _geom_bond_distance
    _geom_bond_site_symmetry_2
    _ccdc_geom_bond_type
    Zr0    O6        1.22767      .   S
    Zr4    O6        1.22767  1_544   S
    Zr1    O7        1.22719      .   S
    Zr3    O7        1.22719  1_454   S
    Zr2    O8        1.22745      .   S
    Zr5    O8        1.22745  1_445   S
    N9     O10       2.15413      .   S
    Zr4    O10       3.12642  1_545   S
    N9     O11       2.15353  1_554   S
    Zr1    O11       3.12587  1_655   S
    N9     O12       2.26158      .   S
    Zr3    O12       3.22096      .   S
    N9     O13       2.26090  1_554   S
    Zr0    O13       3.22077      .   S
    N14    O15       3.69239  1_565   S
    Zr4    O15       4.53178  1_554   S
    N14    O16       3.69217      .   S
    Zr0    O16       4.53163  1_556   S
    N14    O17       3.69303  1_565   S
    Zr5    O17       4.53239  1_455   S
    N14    O18       3.19006      .   S
    Zr0    O18       4.11344      .   S
    N14    O19       3.69290      .   S
    Zr2    O19       4.53234  1_655   S
    N14    O20       3.19183      .   S
    Zr2    O20       4.11528      .   S
    N14    O21       3.18985  1_565   S
    Zr4    O21       4.11336      .   S
    N14    O22       3.19160  1_565   S
    Zr5    O22       4.11522      .   S
    N23    O24       2.15934      .   S
    Zr0    O24       3.13122  1_565   S
    N23    O25       2.26215  1_556   S
    Zr4    O25       3.22270      .   S
    N23    O26       2.15883  1_556   S
    Zr3    O26       3.13072  1_455   S
    N23    O27       2.26282      .   S
    Zr1    O27       3.22283      .   S
    N28    O29       3.18251      .   S
    Zr2    O29       4.10283      .   S
    N28    O30       3.68949      .   S
    Zr2    O30       4.52433  1_565   S
    N28    O31       3.69343      .   S
    Zr1    O31       4.53072  1_556   S
    N28    O32       3.19056      .   S
    Zr1    O32       4.11300      .   S
    N28    O33       3.69360  1_655   S
    Zr3    O33       4.53079  1_554   S
    N28    O34       3.18248  1_655   S
    Zr5    O34       4.10267      .   S
    N28    O35       3.19058  1_655   S
    Zr3    O35       4.11280      .   S
    N28    O36       3.68958  1_655   S
    Zr5    O36       4.52453  1_545   S
