# CIF file generated by openbabel 2.4.90, see http://openbabel.sf.net
data_I
_chemical_name_common ''
_cell_length_a 15.339
_cell_length_b 15.305
_cell_length_c 15.334
_cell_angle_alpha 102.202
_cell_angle_beta 102.574
_cell_angle_gamma 102.334
_space_group_name_H-M_alt 'P 1'
_space_group_name_Hall 'P 1'
loop_
    _symmetry_equiv_pos_as_xyz
    x,y,z
loop_
    _atom_site_label
    _atom_site_type_symbol
    _atom_site_fract_x
    _atom_site_fract_y
    _atom_site_fract_z
    _atom_site_occupancy
    C0      C    0.56808   0.98003   0.98050   1.000
    C1      C    0.98017   0.56814   0.97995   1.000
    C2      C    0.98049   0.97980   0.56802   1.000
    C3      C    0.01980   0.43177   0.02000   1.000
    C4      C    0.43184   0.01989   0.01942   1.000
    C5      C    0.01948   0.02014   0.43189   1.000
    C6      C    0.51460   0.70000   0.98460   1.000
    C7      C    0.98532   0.51545   0.70055   1.000
    C8      C    0.70043   0.98529   0.51594   1.000
    C9      C    0.29973   0.48438   0.01563   1.000
    C10     C    0.48413   0.01455   0.29960   1.000
    C11     C    0.01470   0.29966   0.48532   1.000
    C12     C    0.48535   0.29996   0.01532   1.000
    C13     C    0.01468   0.48447   0.29939   1.000
    C14     C    0.29963   0.01482   0.48403   1.000
    C15     C    0.70029   0.51556   0.98436   1.000
    C16     C    0.51580   0.98532   0.70034   1.000
    C17     C    0.98530   0.70025   0.51463   1.000
    C18     C    0.25132   0.74823   0.50000   1.000
    C19     C    0.00017   0.25137   0.74899   1.000
    C20     C    0.74777   0.00003   0.25221   1.000
    C21     C    0.74866   0.25171   0.00000   1.000
    C22     C    0.99985   0.74857   0.25098   1.000
    C23     C    0.25218   1.00000   0.74771   1.000
    C24     C    0.42320   0.83110   0.98788   1.000
    C25     C    0.38683   0.73377   0.99215   1.000
    C26     C    0.44511   0.67496   0.99131   1.000
    C27     C    0.98838   0.42358   0.83148   1.000
    C28     C    0.99254   0.38724   0.73435   1.000
    C29     C    0.99169   0.44572   0.67556   1.000
    C30     C    0.83108   0.98849   0.42437   1.000
    C31     C    0.73373   0.99248   0.38793   1.000
    C32     C    0.67518   0.99163   0.44617   1.000
    C33     C    0.16875   0.57608   0.01217   1.000
    C34     C    0.26590   0.61244   0.00796   1.000
    C35     C    0.32464   0.55406   0.00889   1.000
    C36     C    0.57558   0.01140   0.16888   1.000
    C37     C    0.61208   0.00742   0.26625   1.000
    C38     C    0.55389   0.00824   0.32480   1.000
    C39     C    0.01187   0.16862   0.57697   1.000
    C40     C    0.00768   0.26591   0.61332   1.000
    C41     C    0.00838   0.32475   0.55492   1.000
    C42     C    0.57674   0.16884   0.01208   1.000
    C43     C    0.61312   0.26616   0.00778   1.000
    C44     C    0.55486   0.32499   0.00864   1.000
    C45     C    0.01160   0.57635   0.16847   1.000
    C46     C    0.00747   0.61269   0.26560   1.000
    C47     C    0.00831   0.55421   0.32439   1.000
    C48     C    0.16891   0.01153   0.57553   1.000
    C49     C    0.26626   0.00755   0.61200   1.000
    C50     C    0.32484   0.00842   0.55379   1.000
    C51     C    0.83123   0.42383   0.98782   1.000
    C52     C    0.73408   0.38748   0.99201   1.000
    C53     C    0.67537   0.44589   0.99110   1.000
    C54     C    0.42433   0.98853   0.83105   1.000
    C55     C    0.38787   0.99255   0.73368   1.000
    C56     C    0.44606   0.99169   0.67509   1.000
    C57     C    0.98812   0.83130   0.42299   1.000
    C58     C    0.99235   0.73403   0.38664   1.000
    C59     C    0.99163   0.67517   0.44503   1.000
    C60     C    0.29688   0.70266   0.60000   1.000
    C61     C    0.41484   0.58453   0.00010   1.000
    C62     C    0.47428   0.52531   0.60000   1.000
    C63     C    0.00012   0.29699   0.70338   1.000
    C64     C    0.00000   0.41526   0.58523   1.000
    C65     C    0.99997   0.47457   0.52570   1.000
    C66     C    0.70234   1.00000   0.29766   1.000
    C67     C    0.58467   0.99996   0.41540   1.000
    C68     C    0.52551   0.99998   0.47457   1.000
    C69     C    0.70312   0.29729   0.99997   1.000
    C70     C    0.58517   0.41543   0.99987   1.000
    C71     C    0.52574   0.47467   0.99993   1.000
    C72     C    0.99989   0.70295   0.29650   1.000
    C73     C    1.00000   0.58466   0.41470   1.000
    C74     C    0.00000   0.52535   0.47424   1.000
    C75     C    0.29762   0.00002   0.70227   1.000
    C76     C    0.41533   0.00006   0.58456   1.000
    C77     C    0.47451   0.00003   0.52541   1.000
    C78     C    0.50172   0.85083   0.97015   1.000
    C79     C    0.37432   0.88731   0.00449   1.000
    C80     C    0.97040   0.50216   0.85103   1.000
    C81     C    0.00523   0.37452   0.88771   1.000
    C82     C    0.85115   0.97011   0.50276   1.000
    C83     C    0.88694   0.00575   0.37544   1.000
    C84     C    0.14899   0.49744   0.03015   1.000
    C85     C    0.11266   0.62518   0.99519   1.000
    C86     C    0.49712   0.02951   0.14876   1.000
    C87     C    0.62451   0.99428   0.11305   1.000
    C88     C    0.02973   0.14914   0.49850   1.000
    C89     C    0.99521   0.11222   0.62579   1.000
    C90     C    0.49820   0.14910   0.02975   1.000
    C91     C    0.62561   0.11262   0.99545   1.000
    C92     C    0.02971   0.49783   0.14894   1.000
    C93     C    0.99457   0.62534   0.11221   1.000
    C94     C    0.14882   0.02980   0.49700   1.000
    C95     C    0.11306   0.99429   0.62447   1.000
    C96     C    0.85096   0.50238   0.96966   1.000
    C97     C    0.88735   0.37478   0.00493   1.000
    C98     C    0.50281   0.97044   0.85118   1.000
    C99     C    0.37538   0.00561   0.88686   1.000
    C100    C    0.97031   0.85080   0.50146   1.000
    C101    C    0.00469   0.88769   0.37413   1.000
    O102    O    0.36974   0.56930   0.00450   1.000
    O103    O    0.42998   0.62975   0.99570   1.000
    O104    O    0.40308   0.95360   0.01195   1.000
    O105    O    0.39876   0.85921   0.99618   1.000
    O106    O    0.95358   0.40328   0.01247   1.000
    O107    O    0.85929   0.39931   0.99638   1.000
    O108    O    0.58399   0.29558   0.00821   1.000
    O109    O    0.59493   0.21750   0.00993   1.000
    O110    O    0.65812   0.28172   0.00388   1.000
    O111    O    0.29527   0.58325   0.00843   1.000
    O112    O    0.21733   0.59426   0.01007   1.000
    O113    O    0.52011   0.31248   0.01198   1.000
    O114    O    0.57001   0.37021   0.00426   1.000
    O115    O    0.31219   0.51922   0.01226   1.000
    O116    O    0.53747   0.15897   0.02091   1.000
    O117    O    0.60118   0.14073   0.00376   1.000
    O118    O    0.15887   0.53676   0.02116   1.000
    O119    O    0.14071   0.60063   0.00368   1.000
    O120    O    0.46502   0.08450   0.02458   1.000
    O121    O    0.46448   0.02470   0.08409   1.000
    O122    O    0.40361   0.01275   0.95314   1.000
    O123    O    0.08440   0.46461   0.02507   1.000
    O124    O    0.02476   0.46480   0.08447   1.000
    O125    O    0.01252   0.40315   0.95385   1.000
    O126    O    0.00308   0.60084   0.14034   1.000
    O127    O    0.98737   0.59674   0.04608   1.000
    O128    O    0.60005   0.00284   0.14097   1.000
    O129    O    0.59629   0.98716   0.04678   1.000
    O130    O    0.53635   0.02045   0.15882   1.000
    O131    O    0.02065   0.53709   0.15870   1.000
    O132    O    0.00953   0.59452   0.21703   1.000
    O133    O    0.59383   0.00941   0.21756   1.000
    O134    O    0.99987   0.72576   0.27374   1.000
    O135    O    0.72506   0.00002   0.27493   1.000
    O136    O    0.00368   0.65782   0.28105   1.000
    O137    O    0.00789   0.58345   0.29500   1.000
    O138    O    0.65721   0.00371   0.28195   1.000
    O139    O    0.58298   0.00783   0.29552   1.000
    O140    O    0.99612   0.71849   0.34157   1.000
    O141    O    0.71804   0.99624   0.34280   1.000
    O142    O    0.01149   0.51934   0.31189   1.000
    O143    O    0.51901   0.01139   0.31220   1.000
    O144    O    0.00415   0.56944   0.36954   1.000
    O145    O    0.56928   0.00410   0.37010   1.000
    O146    O    0.99641   0.85950   0.39856   1.000
    O147    O    0.01208   0.95391   0.40301   1.000
    O148    O    0.85901   0.99712   0.39991   1.000
    O149    O    0.95321   0.01294   0.40366   1.000
    O150    O    0.99023   0.78266   0.40481   1.000
    O151    O    0.99199   0.70460   0.41583   1.000
    O152    O    0.78241   0.99048   0.40615   1.000
    O153    O    0.70446   0.99206   0.41705   1.000
    O154    O    0.99581   0.62992   0.42986   1.000
    O155    O    0.00000   0.55501   0.44447   1.000
    O156    O    0.62992   0.99580   0.43078   1.000
    O157    O    0.55509   0.99997   0.44498   1.000
    O158    O    0.97922   0.84105   0.46222   1.000
    O159    O    0.84112   0.97930   0.46356   1.000
    O160    O    0.08415   0.02497   0.46444   1.000
    O161    O    0.02460   0.08464   0.46519   1.000
    O162    O    0.98846   0.68771   0.47983   1.000
    O163    O    0.68780   0.98846   0.48105   1.000
    O164    O    0.99999   0.49996   0.49997   1.000
    O165    O    0.50001   0.00001   0.49999   1.000
    O166    O    0.31224   0.01162   0.51891   1.000
    O167    O    0.01154   0.31221   0.52012   1.000
    O168    O    0.15886   0.02066   0.53626   1.000
    O169    O    0.02080   0.15888   0.53773   1.000
    O170    O    0.97540   0.91530   0.53474   1.000
    O171    O    0.91582   0.97495   0.53539   1.000
    O172    O    0.44492   0.00005   0.55498   1.000
    O173    O    0.99999   0.44492   0.55546   1.000
    O174    O    0.37009   0.00424   0.56917   1.000
    O175    O    0.29555   0.00798   0.58289   1.000
    O176    O    0.00419   0.37001   0.57007   1.000
    O177    O    0.00803   0.29533   0.58412   1.000
    O178    O    0.04678   0.98704   0.59624   1.000
    O179    O    0.98785   0.04601   0.59691   1.000
    O180    O    0.21758   0.00954   0.59376   1.000
    O181    O    0.14098   0.00291   0.60000   1.000
    O182    O    0.00977   0.21727   0.59515   1.000
    O183    O    0.00354   0.14042   0.60138   1.000
    O184    O    0.43070   0.99588   0.62982   1.000
    O185    O    0.99585   0.43049   0.63040   1.000
    O186    O    0.28194   0.00379   0.65713   1.000
    O187    O    0.00390   0.28145   0.65835   1.000
    O188    O    0.48093   0.98851   0.68771   1.000
    O189    O    0.41697   0.99212   0.70438   1.000
    O190    O    0.98851   0.48059   0.68805   1.000
    O191    O    0.99212   0.41648   0.70495   1.000
    O192    O    0.34275   0.99629   0.71797   1.000
    O193    O    0.27490   0.00001   0.72499   1.000
    O194    O    0.99633   0.34212   0.71887   1.000
    O195    O    0.00014   0.27418   0.72619   1.000
    O196    O    0.40610   0.99054   0.78236   1.000
    O197    O    0.99046   0.40541   0.78291   1.000
    O198    O    0.46357   0.97949   0.84111   1.000
    O199    O    0.39986   0.99707   0.85895   1.000
    O200    O    0.97939   0.46287   0.84125   1.000
    O201    O    0.99681   0.39905   0.85959   1.000
    O202    O    0.97528   0.53515   0.91549   1.000
    O203    O    0.53544   0.97524   0.91584   1.000
    O204    O    0.91556   0.53526   0.97480   1.000
    O205    O    0.84110   0.46311   0.97874   1.000
    O206    O    0.53490   0.91543   0.97532   1.000
    O207    O    0.46246   0.84096   0.97901   1.000
    O208    O    0.04642   0.59666   0.98757   1.000
    O209    O    0.59684   0.04632   0.98797   1.000
    O210    O    0.68783   0.48073   0.98773   1.000
    O211    O    0.47986   0.68748   0.98796   1.000
    O212    O    0.78266   0.40566   0.98991   1.000
    O213    O    0.40502   0.78244   0.99001   1.000
    O214    O    0.70472   0.41668   0.99155   1.000
    O215    O    0.63027   0.43066   0.99548   1.000
    O216    O    0.41597   0.70437   0.99173   1.000
    O217    O    0.71860   0.34238   0.99599   1.000
    O218    O    0.55545   0.44505   0.99990   1.000
    O219    O    0.72589   0.27449   0.99999   1.000
    O220    O    0.49996   0.99996   0.99996   1.000
    O221    O    0.99999   0.49996   0.99997   1.000
    O222    O    0.99998   0.99997   0.49996   1.000
loop_
    _geom_bond_atom_site_label_1
    _geom_bond_atom_site_label_2
    _geom_bond_distance
    _geom_bond_site_symmetry_2
    _ccdc_geom_bond_type
    C61    O102      0.70392      .   S
    C35    O102      0.70392      .   S
    C61    O103      0.70373  1_554   S
    C26    O103      0.70373      .   S
    C79    O104      0.98732      .   S
    C4     O104      0.98732  1_545   S
    C79    O105      0.63903  1_554   S
    C24    O105      0.63903      .   S
    C97    O106      0.98686      .   S
    C3     O106      0.98686  1_455   S
    C97    O107      0.63916  1_554   S
    C51    O107      0.63916      .   S
    C43    O108      0.69883      .   S
    C44    O108      0.69883      .   S
    C43    O109      0.74778      .   S
    C42    O109      0.74778      .   S
    C43    O110      0.70037      .   S
    C69    O110      0.70037  1_556   S
    C34    O111      0.69898      .   S
    C35    O111      0.69898      .   S
    C34    O112      0.74786      .   S
    C33    O112      0.74786      .   S
    C44    O113      0.54397      .   S
    C12    O113      0.54397      .   S
    C44    O114      0.70377      .   S
    C70    O114      0.70377  1_556   S
    C35    O115      0.54397      .   S
    C9     O115      0.54397      .   S
    C42    O116      0.63983      .   S
    C90    O116      0.63983      .   S
    C42    O117      0.63903      .   S
    C91    O117      0.63903  1_556   S
    C33    O118      0.63980      .   S
    C84    O118      0.63980      .   S
    C33    O119      0.63915      .   S
    C85    O119      0.63915  1_556   S
    C4     O120      0.98857      .   S
    C90    O120      0.98857      .   S
    C4     O121      0.98827      .   S
    C86    O121      0.98827      .   S
    C4     O122      0.98672  1_554   S
    C99    O122      0.98672      .   S
    C3     O123      0.98865      .   S
    C84    O123      0.98865      .   S
    C3     O124      0.98906      .   S
    C92    O124      0.98906      .   S
    C3     O125      0.98745  1_554   S
    C81    O125      0.98745      .   S
    C93    O126      0.63907  1_655   S
    C45    O126      0.63907      .   S
    C93    O127      0.98742      .   S
    C1     O127      0.98742  1_556   S
    C87    O128      0.63912  1_565   S
    C36    O128      0.63912      .   S
    C87    O129      0.98666      .   S
    C0     O129      0.98666  1_556   S
    C86    O130      0.63981      .   S
    C36    O130      0.63981      .   S
    C92    O131      0.63985      .   S
    C45    O131      0.63985      .   S
    C45    O132      0.74792      .   S
    C46    O132      0.74792      .   S
    C36    O133      0.74758      .   S
    C37    O133      0.74758      .   S
    C22    O134      0.54333      .   S
    C72    O134      0.54333      .   S
    C20    O135      0.54375      .   S
    C66    O135      0.54375  1_565   S
    C46    O136      0.70040      .   S
    C72    O136      0.70040  1_655   S
    C46    O137      0.69910      .   S
    C47    O137      0.69910      .   S
    C37    O138      0.70032      .   S
    C66    O138      0.70032  1_565   S
    C37    O139      0.69855      .   S
    C38    O139      0.69855      .   S
    C72    O140      0.70097      .   S
    C58    O140      0.70097      .   S
    C66    O141      0.70033      .   S
    C31    O141      0.70033      .   S
    C13    O142      0.54397      .   S
    C47    O142      0.54397      .   S
    C10    O143      0.54392      .   S
    C38    O143      0.54392      .   S
    C47    O144      0.70368      .   S
    C73    O144      0.70368  1_655   S
    C38    O145      0.70416      .   S
    C67    O145      0.70416  1_565   S
    C101   O146      0.63902  1_455   S
    C57    O146      0.63902      .   S
    C101   O147      0.98768      .   S
    C5     O147      0.98768  1_545   S
    C83    O148      0.63907  1_545   S
    C30    O148      0.63907      .   S
    C83    O149      0.98651      .   S
    C5     O149      0.98651  1_455   S
    C58    O150      0.74793      .   S
    C57    O150      0.74793      .   S
    C58    O151      0.69895      .   S
    C59    O151      0.69895      .   S
    C31    O152      0.74767      .   S
    C30    O152      0.74767      .   S
    C31    O153      0.69885      .   S
    C32    O153      0.69885      .   S
    C73    O154      0.70379      .   S
    C59    O154      0.70379      .   S
    C73    O155      0.70853  1_655   S
    C74    O155      0.70853      .   S
    C67    O156      0.70394      .   S
    C32    O156      0.70394      .   S
    C67    O157      0.70804      .   S
    C68    O157      0.70804      .   S
    C57    O158      0.63984      .   S
    C100   O158      0.63984      .   S
    C30    O159      0.63982      .   S
    C82    O159      0.63982      .   S
    C5     O160      0.98803      .   S
    C94    O160      0.98803      .   S
    C5     O161      0.98881      .   S
    C88    O161      0.98881      .   S
    C59    O162      0.54397      .   S
    C17    O162      0.54397      .   S
    C32    O163      0.54397      .   S
    C8     O163      0.54397      .   S
    C74    O164      0.60949  1_455   S
    C65    O164      0.60949      .   S
    C68    O165      0.60934  1_565   S
    C77    O165      0.60934      .   S
    C14    O166      0.54401      .   S
    C50    O166      0.54401      .   S
    C11    O167      0.54397      .   S
    C41    O167      0.54397      .   S
    C94    O168      0.64045      .   S
    C48    O168      0.64045      .   S
    C88    O169      0.64004      .   S
    C39    O169      0.64004      .   S
    C100   O170      0.98882      .   S
    C2     O170      0.98882      .   S
    C82    O171      0.98829      .   S
    C2     O171      0.98829      .   S
    C77    O172      0.70798      .   S
    C76    O172      0.70798      .   S
    C65    O173      0.70841      .   S
    C64    O173      0.70841  1_455   S
    C50    O174      0.70388      .   S
    C76    O174      0.70388      .   S
    C50    O175      0.69883      .   S
    C49    O175      0.69883      .   S
    C41    O176      0.70383      .   S
    C64    O176      0.70383      .   S
    C41    O177      0.69892      .   S
    C40    O177      0.69892      .   S
    C2     O178      0.98653  1_655   S
    C95    O178      0.98653      .   S
    C2     O179      0.98763  1_565   S
    C89    O179      0.98763      .   S
    C48    O180      0.74768      .   S
    C49    O180      0.74768      .   S
    C48    O181      0.63909      .   S
    C95    O181      0.63909  1_565   S
    C39    O182      0.74791      .   S
    C40    O182      0.74791      .   S
    C39    O183      0.63899      .   S
    C89    O183      0.63899  1_655   S
    C76    O184      0.70388  1_545   S
    C56    O184      0.70388      .   S
    C64    O185      0.70381  1_455   S
    C29    O185      0.70381      .   S
    C49    O186      0.70032      .   S
    C75    O186      0.70032      .   S
    C40    O187      0.70044      .   S
    C63    O187      0.70044      .   S
    C56    O188      0.54399      .   S
    C16    O188      0.54399      .   S
    C56    O189      0.69881      .   S
    C55    O189      0.69881      .   S
    C29    O190      0.54396      .   S
    C7     O190      0.54396      .   S
    C29    O191      0.69904      .   S
    C28    O191      0.69904      .   S
    C75    O192      0.70037  1_545   S
    C55    O192      0.70037      .   S
    C75    O193      0.54377      .   S
    C23    O193      0.54377  1_565   S
    C63    O194      0.70045  1_455   S
    C28    O194      0.70045      .   S
    C63    O195      0.54384      .   S
    C19    O195      0.54384      .   S
    C55    O196      0.74763      .   S
    C54    O196      0.74763      .   S
    C28    O197      0.74801      .   S
    C27    O197      0.74801      .   S
    C54    O198      0.63981      .   S
    C98    O198      0.63981      .   S
    C54    O199      0.63908      .   S
    C99    O199      0.63908  1_545   S
    C27    O200      0.63985      .   S
    C80    O200      0.63985      .   S
    C27    O201      0.63906      .   S
    C81    O201      0.63906  1_455   S
    C80    O202      0.98902      .   S
    C1     O202      0.98902      .   S
    C98    O203      0.98817      .   S
    C0     O203      0.98817      .   S
    C96    O204      0.98870      .   S
    C1     O204      0.98870      .   S
    C96    O205      0.63978      .   S
    C51    O205      0.63978      .   S
    C78    O206      0.98853      .   S
    C0     O206      0.98853      .   S
    C78    O207      0.63982      .   S
    C24    O207      0.63982      .   S
    C1     O208      0.98695  1_655   S
    C85    O208      0.98695      .   S
    C0     O209      0.98732  1_565   S
    C91    O209      0.98732      .   S
    C15    O210      0.54398      .   S
    C53    O210      0.54398      .   S
    C6     O211      0.54394      .   S
    C26    O211      0.54394      .   S
    C51    O212      0.74784      .   S
    C52    O212      0.74784      .   S
    C24    O213      0.74775      .   S
    C25    O213      0.74775      .   S
    C53    O214      0.69897      .   S
    C52    O214      0.69897      .   S
    C53    O215      0.70384      .   S
    C70    O215      0.70384      .   S
    C26    O216      0.69883      .   S
    C25    O216      0.69883      .   S
    C52    O217      0.70044      .   S
    C69    O217      0.70044      .   S
    C70    O218      0.70813      .   S
    C71    O218      0.70813      .   S
    C69    O219      0.54379      .   S
    C21    O219      0.54379  1_554   S
    C0     O220      1.22767      .   S
    C4     O220      1.22767  1_544   S
    C1     O221      1.22719      .   S
    C3     O221      1.22719  1_454   S
    C2     O222      1.22745      .   S
    C5     O222      1.22745  1_445   S
