# CIF file generated by openbabel 2.4.90, see http://openbabel.sf.net
data_I
_chemical_name_common ''
_cell_length_a 8.9005
_cell_length_b 9.957
_cell_length_c 10.173
_cell_angle_alpha 82.633
_cell_angle_beta 88.724
_cell_angle_gamma 86.396
_space_group_name_H-M_alt 'P 1'
_space_group_name_Hall 'P 1'
loop_
    _symmetry_equiv_pos_as_xyz
    x,y,z
loop_
    _atom_site_label
    _atom_site_type_symbol
    _atom_site_fract_x
    _atom_site_fract_y
    _atom_site_fract_z
    _atom_site_occupancy
    Zr0     Zr   0.75576   0.83813   0.67128   1.000
    Zr1     Zr   0.70520   0.88823   0.35092   1.000
    Zr2     Zr   0.24425   0.16188   0.32870   1.000
    Zr3     Zr   0.29481   0.11178   0.64906   1.000
    Zr4     Zr   0.00000   0.00000   0.49999   1.000
    N5      N    0.00001   0.50000   0.49999   1.000
    O6      O    0.00930   0.69857   0.49431   1.000
    O7      O    0.99071   0.30143   0.50567   1.000
    O8      O    0.08834   0.37013   0.42322   1.000
    O9      O    0.91168   0.62988   0.57676   1.000
    N10     N    0.50000   0.00000   0.99999   1.000
    O11     O    0.55241   0.96673   0.16157   1.000
    O12     O    0.60513   0.93325   0.87634   1.000
    O13     O    0.44760   0.03328   0.83841   1.000
    O14     O    0.39489   0.06676   0.12364   1.000
    N15     N    0.00001   0.00001   0.99999   1.000
    O16     O    0.11231   0.04810   0.86196   1.000
    O17     O    0.00467   0.01095   0.19577   1.000
    O18     O    0.99534   0.98906   0.80421   1.000
    O19     O    0.88770   0.95191   0.13803   1.000
    N20     N    0.50001   0.50000   0.49999   1.000
    O21     O    0.58770   0.64766   0.43988   1.000
    O22     O    0.58137   0.64584   0.57158   1.000
    O23     O    0.41865   0.35417   0.42840   1.000
    O24     O    0.41232   0.35235   0.56010   1.000
    N25     N    0.73759   0.01775   0.51108   1.000
    O26     O    0.73720   0.97507   0.46956   1.000
    O27     O    0.74984   0.96255   0.54965   1.000
    O28     O    0.81090   0.00301   0.50683   1.000
    N29     N    0.26243   0.98226   0.48890   1.000
    O30     O    0.26281   0.02494   0.53042   1.000
    O31     O    0.25017   0.03746   0.45033   1.000
    O32     O    0.18911   0.99699   0.49315   1.000
loop_
    _geom_bond_atom_site_label_1
    _geom_bond_atom_site_label_2
    _geom_bond_distance
    _geom_bond_site_symmetry_2
    _ccdc_geom_bond_type
    N5     O6        1.97746      .   S
    Zr4    O6        3.00518  1_545   S
    N5     O7        1.97748  1_455   S
    Zr4    O7        3.00524  1_455   S
    N5     O8        1.73329      .   S
    Zr2    O8        2.69072      .   S
    N5     O9        1.73329  1_455   S
    Zr0    O9        2.69073      .   S
    N10    O11       1.70421  1_546   S
    Zr1    O11       2.40162      .   S
    N10    O12       1.72722  1_545   S
    Zr0    O12       2.69603      .   S
    N10    O13       1.70421      .   S
    Zr3    O13       2.40162      .   S
    N10    O14       1.72721  1_556   S
    Zr2    O14       2.69603      .   S
    N15    O16       1.73942      .   S
    Zr3    O16       2.71141      .   S
    N15    O17       2.01005  1_556   S
    Zr4    O17       3.08217      .   S
    N15    O18       2.01006  1_445   S
    Zr4    O18       3.08219  1_445   S
    N15    O19       1.73943  1_446   S
    Zr1    O19       2.71141      .   S
    N20    O21       1.74268      .   S
    Zr1    O21       2.71430      .   S
    N20    O22       1.89479      .   S
    Zr0    O22       2.83651      .   S
    N20    O23       1.89479      .   S
    Zr2    O23       2.83650      .   S
    N20    O24       1.74269      .   S
    Zr3    O24       2.71431      .   S
    N25    O26       0.63659  1_545   S
    Zr1    O26       1.61224      .   S
    N25    O27       0.63795  1_545   S
    Zr0    O27       1.63404      .   S
    N25    O28       0.66143      .   S
    Zr4    O28       1.68152  1_455   S
    N29    O30       0.63659  1_565   S
    Zr3    O30       1.61225      .   S
    N29    O31       0.63795  1_565   S
    Zr2    O31       1.63404      .   S
    N29    O32       0.66146      .   S
    Zr4    O32       1.68162  1_545   S
