# CIF file generated by openbabel 2.4.90, see http://openbabel.sf.net
data_I
_chemical_name_common ''
_cell_length_a 16.985
_cell_length_b 20.631
_cell_length_c 14.176
_cell_angle_alpha 67.192
_cell_angle_beta 75.133
_cell_angle_gamma 76.554
_space_group_name_H-M_alt 'P 1'
_space_group_name_Hall 'P 1'
loop_
    _symmetry_equiv_pos_as_xyz
    x,y,z
loop_
    _atom_site_label
    _atom_site_type_symbol
    _atom_site_fract_x
    _atom_site_fract_y
    _atom_site_fract_z
    _atom_site_occupancy
    Lv0     Lv   0.24999   0.50000   0.00027   1.000
    Lv1     Lv   0.00001   0.00001   0.00024   1.000
    Lv2     Lv   0.50002   0.00001   0.00023   1.000
    Lv3     Lv   0.00000   0.50001   0.00024   1.000
    Lv4     Lv   0.75000   0.49999   0.00026   1.000
    Lv5     Lv   0.24999   0.75000   0.50023   1.000
    Lv6     Lv   0.24999   0.25001   0.50021   1.000
    Lv7     Lv   0.25000   0.99999   0.00029   1.000
    Lv8     Lv   0.75000   1.00000   0.00028   1.000
    Lv9     Lv   0.50001   0.50001   0.00023   1.000
    Lv10    Lv   0.74999   0.25002   0.50019   1.000
    Lv11    Lv   0.74999   0.75000   0.50022   1.000
