# CIF file generated by openbabel 2.4.90, see http://openbabel.sf.net
data_I
_chemical_name_common ''
_cell_length_a 16.985
_cell_length_b 20.631
_cell_length_c 14.176
_cell_angle_alpha 67.192
_cell_angle_beta 75.133
_cell_angle_gamma 76.554
_space_group_name_H-M_alt 'P 1'
_space_group_name_Hall 'P 1'
loop_
    _symmetry_equiv_pos_as_xyz
    x,y,z
loop_
    _atom_site_label
    _atom_site_type_symbol
    _atom_site_fract_x
    _atom_site_fract_y
    _atom_site_fract_z
    _atom_site_occupancy
    C0      C    0.49381   0.13992   0.00617   1.000
    C1      C    0.49380   0.63992   0.00610   1.000
    C2      C    0.99381   0.13992   0.00617   1.000
    C3      C    0.99378   0.63992   0.00610   1.000
    C4      C    0.37831   0.23960   0.32366   1.000
    C5      C    0.37831   0.73958   0.32368   1.000
    C6      C    0.87831   0.23960   0.32366   1.000
    C7      C    0.87831   0.73959   0.32360   1.000
    C8      C    0.00623   0.36010   0.99426   1.000
    C9      C    0.00622   0.86009   0.99420   1.000
    C10     C    0.50624   0.36010   0.99426   1.000
    C11     C    0.50625   0.86009   0.99428   1.000
    C12     C    0.12166   0.26041   0.67670   1.000
    C13     C    0.12166   0.76041   0.67677   1.000
    C14     C    0.62166   0.26042   0.67675   1.000
    C15     C    0.62167   0.76040   0.67677   1.000
