# CIF file generated by openbabel 2.4.90, see http://openbabel.sf.net
data_I
_chemical_name_common ''
_cell_length_a 16.985
_cell_length_b 20.631
_cell_length_c 14.176
_cell_angle_alpha 67.192
_cell_angle_beta 75.133
_cell_angle_gamma 76.554
_space_group_name_H-M_alt 'P 1'
_space_group_name_Hall 'P 1'
loop_
    _symmetry_equiv_pos_as_xyz
    x,y,z
loop_
    _atom_site_label
    _atom_site_type_symbol
    _atom_site_fract_x
    _atom_site_fract_y
    _atom_site_fract_z
    _atom_site_occupancy
    N0      N    0.24999   0.50000   0.00027   1.000
    N1      N    0.00001   0.00001   0.00024   1.000
    N2      N    0.50002   0.00001   0.00023   1.000
    N3      N    0.00000   0.50001   0.00024   1.000
    N4      N    0.75000   0.49999   0.00026   1.000
    N5      N    0.24999   0.75000   0.50023   1.000
    N6      N    0.24999   0.25001   0.50021   1.000
    N7      N    0.25000   0.99999   0.00029   1.000
    N8      N    0.75000   1.00000   0.00028   1.000
    N9      N    0.50001   0.50001   0.00023   1.000
    N10     N    0.74999   0.25002   0.50019   1.000
    N11     N    0.74999   0.75000   0.50022   1.000
    Zr12    Zr   0.00001   0.25001   0.00021   1.000
    O13     O    0.00116   0.34908   0.99910   1.000
    O14     O    0.10124   0.25203   0.78295   1.000
    O15     O    0.93207   0.32606   0.95885   1.000
    O16     O    0.99886   0.15093   0.00134   1.000
    O17     O    0.89875   0.24799   0.21745   1.000
    O18     O    0.06794   0.17394   0.04161   1.000
    Zr19    Zr   0.50001   0.75000   0.00022   1.000
    O20     O    0.50117   0.84907   0.99911   1.000
    O21     O    0.39875   0.74797   0.21748   1.000
    O22     O    0.60125   0.75202   0.78297   1.000
    O23     O    0.43207   0.82606   0.95887   1.000
    O24     O    0.49885   0.65093   0.00134   1.000
    O25     O    0.56794   0.67393   0.04162   1.000
    Zr26    Zr   0.50001   0.25001   0.00021   1.000
    O27     O    0.60125   0.25204   0.78295   1.000
    O28     O    0.49886   0.15094   0.00134   1.000
    O29     O    0.39875   0.24799   0.21746   1.000
    O30     O    0.50117   0.34908   0.99910   1.000
    O31     O    0.43207   0.32607   0.95885   1.000
    O32     O    0.56794   0.17394   0.04161   1.000
    Zr33    Zr   0.99999   0.75000   0.00021   1.000
    O34     O    0.89874   0.74798   0.21746   1.000
    O35     O    0.10124   0.75202   0.78297   1.000
    O36     O    0.06793   0.67394   0.04161   1.000
    O37     O    0.93206   0.82606   0.95886   1.000
    O38     O    0.99884   0.65093   0.00133   1.000
    O39     O    0.00116   0.84907   0.99909   1.000
loop_
    _geom_bond_atom_site_label_1
    _geom_bond_atom_site_label_2
    _geom_bond_distance
    _geom_bond_site_symmetry_2
    _ccdc_geom_bond_type
    Zr12   O13       2.04254  1_554   S
    N3     O13       3.11556  1_554   S
    Zr12   O14       3.10805  1_554   S
    N6     O14       4.16342      .   S
    Zr12   O15       1.71150  1_454   S
    N4     O15       4.28077  1_554   S
    Zr12   O16       2.04239  1_455   S
    N1     O16       3.11539  1_455   S
    Zr12   O17       3.10803  1_455   S
    N10    O17       4.16355      .   S
    Zr12   O18       1.71170      .   S
    N7     O18       4.28062  1_565   S
    Zr19   O20       2.04259  1_554   S
    N2     O20       3.11560  1_544   S
    Zr19   O21       3.10810      .   S
    N5     O21       4.16366      .   S
    Zr19   O22       3.10800  1_554   S
    N11    O22       4.16354      .   S
    Zr19   O23       1.71151  1_554   S
    N7     O23       4.28088  1_554   S
    Zr19   O24       2.04240      .   S
    N9     O24       3.11526      .   S
    Zr19   O25       1.71166      .   S
    N4     O25       4.28070      .   S
    Zr26   O27       3.10802  1_554   S
    N10    O27       4.16359      .   S
    Zr26   O28       2.04240      .   S
    N2     O28       3.11541      .   S
    Zr26   O29       3.10809      .   S
    N6     O29       4.16364      .   S
    Zr26   O30       2.04255  1_554   S
    N9     O30       3.11556  1_554   S
    Zr26   O31       1.71152  1_554   S
    N0     O31       4.28087  1_554   S
    Zr26   O32       1.71170      .   S
    N8     O32       4.28064  1_565   S
    Zr33   O34       3.10799      .   S
    N11    O34       4.16375      .   S
    Zr33   O35       3.10789  1_654   S
    N5     O35       4.16343      .   S
    Zr33   O36       1.71166  1_655   S
    N0     O36       4.28061      .   S
    Zr33   O37       1.71149  1_554   S
    N8     O37       4.28083  1_554   S
    Zr33   O38       2.04239      .   S
    N3     O38       3.11526  1_455   S
    Zr33   O39       2.04254  1_654   S
    N1     O39       3.11569  1_544   S
