# CIF file generated by openbabel 2.4.90, see http://openbabel.sf.net
data_I
_chemical_name_common 'VESTA_phase_1'
_cell_length_a 15.316
_cell_length_b 19.21
_cell_length_c 19.485
_cell_angle_alpha 89.964
_cell_angle_beta 90
_cell_angle_gamma 90.069
_space_group_name_H-M_alt 'P 1'
_space_group_name_Hall 'P 1'
loop_
    _symmetry_equiv_pos_as_xyz
    x,y,z
loop_
    _atom_site_label
    _atom_site_type_symbol
    _atom_site_fract_x
    _atom_site_fract_y
    _atom_site_fract_z
    _atom_site_occupancy
    Zn0     Zn   0.25534   0.49988   0.50266   1.000
    Zn1     Zn   0.75536   0.49988   0.50266   1.000
    Zn2     Zn   0.24475   0.50255   0.00000   1.000
    Zn3     Zn   0.74477   0.50255   0.00000   1.000
    Zn4     Zn   0.24471   0.99963   0.49997   1.000
    Zn5     Zn   0.74473   0.99963   0.49997   1.000
    Zn6     Zn   0.25528   0.00000   0.00000   1.000
    Zn7     Zn   0.75529   0.00000   0.00000   1.000
    H8      H    0.30629   0.72864   0.47980   1.000
    H9      H    0.80631   0.72864   0.47980   1.000
    H10     H    0.42426   0.64336   0.45717   1.000
    H11     H    0.92428   0.64336   0.45717   1.000
    H12     H    0.11489   0.80874   0.47748   1.000
    H13     H    0.61490   0.80874   0.47748   1.000
    H14     H    0.49461   0.89389   0.49140   1.000
    H15     H    0.99463   0.89389   0.49140   1.000
    H16     H    0.00023   0.55880   0.52618   1.000
    H17     H    0.50025   0.55880   0.52618   1.000
    H18     H    0.03639   0.62594   0.58264   1.000
    H19     H    0.53640   0.62594   0.58264   1.000
    H20     H    0.09651   0.54640   0.57661   1.000
    H21     H    0.59653   0.54640   0.57660   1.000
    H22     H    0.20105   0.78466   0.38387   1.000
    H23     H    0.70106   0.78466   0.38387   1.000
    H24     H    0.11400   0.74975   0.33438   1.000
    H25     H    0.61402   0.74975   0.33438   1.000
    H26     H    0.22365   0.72056   0.32016   1.000
    H27     H    0.72366   0.72056   0.32016   1.000
    H28     H    0.15141   0.52337   0.76170   1.000
    H29     H    0.65142   0.52337   0.76172   1.000
    H30     H    0.03233   0.52874   0.67522   1.000
    H31     H    0.53234   0.52874   0.67522   1.000
    H32     H    0.34132   0.51189   0.83753   1.000
    H33     H    0.84134   0.51189   0.83753   1.000
    H34     H    0.46049   0.50928   0.92299   1.000
    H35     H    0.96050   0.50928   0.92299   1.000
    H36     H    0.36402   0.39624   0.58496   1.000
    H37     H    0.86404   0.39624   0.58496   1.000
    H38     H    0.41310   0.39378   0.66850   1.000
    H39     H    0.91312   0.39378   0.66850   1.000
    H40     H    0.46563   0.43844   0.60037   1.000
    H41     H    0.96564   0.43844   0.60037   1.000
    H42     H    0.24648   0.67608   0.72000   1.000
    H43     H    0.74649   0.67608   0.72000   1.000
    H44     H    0.35199   0.65910   0.76467   1.000
    H45     H    0.85201   0.65910   0.76467   1.000
    H46     H    0.25941   0.61367   0.79660   1.000
    H47     H    0.75942   0.61367   0.79660   1.000
    H48     H    0.19246   0.27334   0.98007   1.000
    H49     H    0.69248   0.27334   0.98006   1.000
    H50     H    0.07436   0.35843   0.95717   1.000
    H51     H    0.57437   0.35843   0.95710   1.000
    H52     H    0.38410   0.19272   0.97718   1.000
    H53     H    0.88412   0.19272   0.97718   1.000
    H54     H    0.00454   0.10774   0.99117   1.000
    H55     H    0.50456   0.10774   0.99117   1.000
    H56     H    0.49887   0.44309   0.02603   1.000
    H57     H    0.99888   0.44309   0.02603   1.000
    H58     H    0.46364   0.37525   0.08209   1.000
    H59     H    0.96365   0.37525   0.08209   1.000
    H60     H    0.40290   0.45456   0.07705   1.000
    H61     H    0.90291   0.45456   0.07700   1.000
    H62     H    0.29705   0.21718   0.88446   1.000
    H63     H    0.79707   0.21718   0.88440   1.000
    H64     H    0.38373   0.25195   0.83445   1.000
    H65     H    0.88375   0.25195   0.83445   1.000
    H66     H    0.27403   0.28128   0.82078   1.000
    H67     H    0.77405   0.28129   0.82070   1.000
    H68     H    0.34896   0.47848   0.26174   1.000
    H69     H    0.84898   0.47848   0.26174   1.000
    H70     H    0.46812   0.47305   0.17530   1.000
    H71     H    0.96814   0.47305   0.17530   1.000
    H72     H    0.15898   0.49001   0.33769   1.000
    H73     H    0.65899   0.49001   0.33769   1.000
    H74     H    0.03971   0.49272   0.42308   1.000
    H75     H    0.53973   0.49272   0.42308   1.000
    H76     H    0.13615   0.60604   0.08527   1.000
    H77     H    0.63616   0.60604   0.08527   1.000
    H78     H    0.08701   0.60824   0.16880   1.000
    H79     H    0.58702   0.60824   0.16880   1.000
    H80     H    0.03460   0.56370   0.10058   1.000
    H81     H    0.53462   0.56370   0.10058   1.000
    H82     H    0.25417   0.32602   0.22903   1.000
    H83     H    0.75418   0.32602   0.22903   1.000
    H84     H    0.14858   0.34276   0.26465   1.000
    H85     H    0.64860   0.34276   0.26465   1.000
    H86     H    0.24103   0.38827   0.29669   1.000
    H87     H    0.74104   0.38827   0.29660   1.000
    H88     H    0.19408   0.22888   0.47959   1.000
    H89     H    0.69409   0.22888   0.47959   1.000
    H90     H    0.07597   0.14386   0.45567   1.000
    H91     H    0.57598   0.14386   0.45567   1.000
    H92     H    0.38554   0.30860   0.47911   1.000
    H93     H    0.88555   0.30860   0.47911   1.000
    H94     H    0.00597   0.39366   0.49420   1.000
    H95     H    0.50599   0.39366   0.49425   1.000
    H96     H    0.50033   0.05844   0.52355   1.000
    H97     H    0.00000   0.05844   0.52355   1.000
    H98     H    0.46374   0.12432   0.58120   1.000
    H99     H    0.96375   0.12432   0.58120   1.000
    H100    H    0.40412   0.04452   0.57365   1.000
    H101    H    0.90413   0.04452   0.57365   1.000
    H102    H    0.29942   0.28603   0.38508   1.000
    H103    H    0.79943   0.28603   0.38508   1.000
    H104    H    0.38613   0.25193   0.33481   1.000
    H105    H    0.88615   0.25193   0.33481   1.000
    H106    H    0.27634   0.22297   0.32043   1.000
    H107    H    0.77636   0.22296   0.32043   1.000
    H108    H    0.34923   0.02317   0.75920   1.000
    H109    H    0.84924   0.02318   0.75920   1.000
    H110    H    0.46838   0.02833   0.67275   1.000
    H111    H    0.96840   0.02833   0.67275   1.000
    H112    H    0.15921   0.00000   0.83522   1.000
    H113    H    0.65922   0.00000   0.83522   1.000
    H114    H    0.04000   0.00000   0.92061   1.000
    H115    H    0.54002   0.00000   0.92061   1.000
    H116    H    0.13645   0.89566   0.58309   1.000
    H117    H    0.63647   0.89565   0.58309   1.000
    H118    H    0.08732   0.89351   0.66664   1.000
    H119    H    0.58734   0.89351   0.66664   1.000
    H120    H    0.03486   0.93775   0.59827   1.000
    H121    H    0.53487   0.93775   0.59827   1.000
    H122    H    0.25444   0.17618   0.72598   1.000
    H123    H    0.75445   0.17618   0.72598   1.000
    H124    H    0.14891   0.15925   0.76173   1.000
    H125    H    0.64893   0.15925   0.76173   1.000
    H126    H    0.24142   0.11398   0.79379   1.000
    H127    H    0.74144   0.11398   0.79379   1.000
    H128    H    0.30727   0.77256   0.97944   1.000
    H129    H    0.80729   0.77256   0.97944   1.000
    H130    H    0.42528   0.85764   0.95544   1.000
    H131    H    0.92530   0.85764   0.95544   1.000
    H132    H    0.11586   0.69296   0.97876   1.000
    H133    H    0.61588   0.69296   0.97876   1.000
    H134    H    0.49554   0.60783   0.99384   1.000
    H135    H    0.99556   0.60783   0.99384   1.000
    H136    H    0.00029   0.94338   0.02316   1.000
    H137    H    0.50031   0.94338   0.02316   1.000
    H138    H    0.03621   0.87705   0.08063   1.000
    H139    H    0.53623   0.87705   0.08063   1.000
    H140    H    0.09615   0.95676   0.07380   1.000
    H141    H    0.59616   0.95676   0.07380   1.000
    H142    H    0.20263   0.71598   0.88546   1.000
    H143    H    0.70265   0.71598   0.88546   1.000
    H144    H    0.11622   0.74997   0.83475   1.000
    H145    H    0.61624   0.74997   0.83475   1.000
    H146    H    0.22604   0.77916   0.82093   1.000
    H147    H    0.72605   0.77916   0.82093   1.000
    H148    H    0.15049   0.97879   0.25916   1.000
    H149    H    0.65050   0.97878   0.25916   1.000
    H150    H    0.03121   0.97348   0.17281   1.000
    H151    H    0.53122   0.97348   0.17281   1.000
    H152    H    0.34060   0.98988   0.33538   1.000
    H153    H    0.84062   0.98987   0.33538   1.000
    H154    H    0.45994   0.99252   0.42068   1.000
    H155    H    0.95996   0.99251   0.42068   1.000
    H156    H    0.36324   0.10672   0.08348   1.000
    H157    H    0.86326   0.10672   0.08348   1.000
    H158    H    0.41261   0.10851   0.16695   1.000
    H159    H    0.91262   0.10851   0.16695   1.000
    H160    H    0.46483   0.06449   0.09837   1.000
    H161    H    0.96485   0.06449   0.09837   1.000
    H162    H    0.24498   0.82600   0.22618   1.000
    H163    H    0.74500   0.82600   0.22618   1.000
    H164    H    0.35058   0.84272   0.26187   1.000
    H165    H    0.85060   0.84272   0.26180   1.000
    H166    H    0.25823   0.88814   0.29395   1.000
    H167    H    0.75824   0.88813   0.29395   1.000
    C168    C    0.31941   0.86821   0.49793   1.000
    C169    C    0.81942   0.86821   0.49793   1.000
    C170    C    0.39246   0.81682   0.48708   1.000
    C171    C    0.89248   0.81682   0.48708   1.000
    C172    C    0.37382   0.74597   0.47813   1.000
    C173    C    0.87384   0.74597   0.47813   1.000
    C174    C    0.44029   0.69789   0.46600   1.000
    C175    C    0.94030   0.69789   0.46629   1.000
    C176    C    0.02691   0.72110   0.46593   1.000
    C177    C    0.52693   0.72110   0.46593   1.000
    C178    C    0.04715   0.79140   0.47591   1.000
    C179    C    0.54717   0.79140   0.47591   1.000
    C180    C    0.47965   0.83892   0.48515   1.000
    C181    C    0.97967   0.83892   0.48515   1.000
    C182    C    0.05828   0.58460   0.54776   1.000
    C183    C    0.55830   0.58460   0.54776   1.000
    C184    C    0.11422   0.61360   0.49280   1.000
    C185    C    0.61424   0.61360   0.49280   1.000
    C186    C    0.16631   0.67983   0.40965   1.000
    C187    C    0.66632   0.67983   0.40965   1.000
    C188    C    0.17643   0.73708   0.35911   1.000
    C189    C    0.67644   0.73708   0.35911   1.000
    C190    C    0.13857   0.51701   0.89820   1.000
    C191    C    0.63858   0.51701   0.89822   1.000
    C192    C    0.06419   0.51587   0.84798   1.000
    C193    C    0.56421   0.51587   0.84798   1.000
    C194    C    0.08348   0.52061   0.77777   1.000
    C195    C    0.58350   0.52060   0.77777   1.000
    C196    C    0.01695   0.52318   0.72940   1.000
    C197    C    0.51697   0.52317   0.72940   1.000
    C198    C    0.42995   0.52049   0.75108   1.000
    C199    C    0.92997   0.52049   0.75108   1.000
    C200    C    0.40911   0.51414   0.82062   1.000
    C201    C    0.90913   0.51414   0.82062   1.000
    C202    C    0.47671   0.51208   0.86871   1.000
    C203    C    0.97673   0.51208   0.86871   1.000
    C204    C    0.40169   0.42604   0.62286   1.000
    C205    C    0.90171   0.42605   0.62286   1.000
    C206    C    0.35255   0.48975   0.64116   1.000
    C207    C    0.85257   0.48975   0.64116   1.000
    C208    C    0.30138   0.58140   0.69675   1.000
    C209    C    0.80140   0.58140   0.69675   1.000
    C210    C    0.28924   0.63564   0.74995   1.000
    C211    C    0.78926   0.63564   0.74995   1.000
    C212    C    0.17970   0.13385   0.99819   1.000
    C213    C    0.67972   0.13384   0.99819   1.000
    C214    C    0.10650   0.18501   0.98714   1.000
    C215    C    0.60652   0.18501   0.98714   1.000
    C216    C    0.12499   0.25590   0.97823   1.000
    C217    C    0.62501   0.25590   0.97820   1.000
    C218    C    0.05844   0.30387   0.96626   1.000
    C219    C    0.55846   0.30387   0.96626   1.000
    C220    C    0.47187   0.28053   0.96579   1.000
    C221    C    0.97188   0.28053   0.96579   1.000
    C222    C    0.45179   0.21017   0.97566   1.000
    C223    C    0.95181   0.21017   0.97566   1.000
    C224    C    0.01939   0.16274   0.98498   1.000
    C225    C    0.51941   0.16274   0.98498   1.000
    C226    C    0.44116   0.41683   0.04768   1.000
    C227    C    0.94117   0.41683   0.04768   1.000
    C228    C    0.38495   0.38808   0.99281   1.000
    C229    C    0.88496   0.38808   0.99281   1.000
    C230    C    0.33221   0.32197   0.90990   1.000
    C231    C    0.83223   0.32197   0.90990   1.000
    C232    C    0.32156   0.26472   0.85950   1.000
    C233    C    0.82158   0.26472   0.85950   1.000
    C234    C    0.36166   0.48513   0.39820   1.000
    C235    C    0.86167   0.48513   0.39820   1.000
    C236    C    0.43610   0.48610   0.34803   1.000
    C237    C    0.93612   0.48611   0.34803   1.000
    C238    C    0.41687   0.48126   0.27781   1.000
    C239    C    0.91688   0.48126   0.27781   1.000
    C240    C    0.48344   0.47866   0.22949   1.000
    C241    C    0.98345   0.47866   0.22949   1.000
    C242    C    0.07042   0.48140   0.25122   1.000
    C243    C    0.57043   0.48140   0.25122   1.000
    C244    C    0.09120   0.48776   0.32075   1.000
    C245    C    0.59122   0.48776   0.32075   1.000
    C246    C    0.02356   0.48986   0.36880   1.000
    C247    C    0.52357   0.48986   0.36880   1.000
    C248    C    0.09850   0.57610   0.12311   1.000
    C249    C    0.59851   0.57610   0.12311   1.000
    C250    C    0.14775   0.51241   0.14134   1.000
    C251    C    0.64776   0.51241   0.14134   1.000
    C252    C    0.19907   0.42069   0.19683   1.000
    C253    C    0.69909   0.42069   0.19683   1.000
    C254    C    0.21129   0.36635   0.24999   1.000
    C255    C    0.71130   0.36635   0.24999   1.000
    C256    C    0.18113   0.36812   0.49992   1.000
    C257    C    0.68114   0.36812   0.49992   1.000
    C258    C    0.10800   0.31680   0.48846   1.000
    C259    C    0.60801   0.31680   0.48846   1.000
    C260    C    0.12656   0.24614   0.47831   1.000
    C261    C    0.62658   0.24614   0.47831   1.000
    C262    C    0.06002   0.19820   0.46575   1.000
    C263    C    0.56004   0.19820   0.46575   1.000
    C264    C    0.47342   0.22130   0.46591   1.000
    C265    C    0.97343   0.22130   0.46591   1.000
    C266    C    0.45325   0.29138   0.47715   1.000
    C267    C    0.95326   0.29138   0.47715   1.000
    C268    C    0.02082   0.33882   0.48700   1.000
    C269    C    0.52084   0.33882   0.48707   1.000
    C270    C    0.44212   0.08352   0.54557   1.000
    C271    C    0.94213   0.08352   0.54557   1.000
    C272    C    0.38608   0.11327   0.49112   1.000
    C273    C    0.88609   0.11327   0.49112   1.000
    C274    C    0.33391   0.18078   0.40909   1.000
    C275    C    0.83393   0.18078   0.40909   1.000
    C276    C    0.32378   0.23885   0.35951   1.000
    C277    C    0.82380   0.23885   0.35951   1.000
    C278    C    0.36187   0.01724   0.89570   1.000
    C279    C    0.86189   0.01724   0.89570   1.000
    C280    C    0.43634   0.01598   0.84554   1.000
    C281    C    0.93636   0.01598   0.84554   1.000
    C282    C    0.41713   0.02049   0.77500   1.000
    C283    C    0.91714   0.02050   0.77500   1.000
    C284    C    0.48371   0.02296   0.72696   1.000
    C285    C    0.98372   0.02297   0.72696   1.000
    C286    C    0.07069   0.02045   0.74869   1.000
    C287    C    0.57071   0.02044   0.74869   1.000
    C288    C    0.09145   0.01435   0.81820   1.000
    C289    C    0.59146   0.01435   0.81825   1.000
    C290    C    0.02380   0.01235   0.86632   1.000
    C291    C    0.52381   0.01235   0.86632   1.000
    C292    C    0.09877   0.92557   0.62084   1.000
    C293    C    0.59878   0.92557   0.62084   1.000
    C294    C    0.14796   0.98942   0.63880   1.000
    C295    C    0.64797   0.98942   0.63880   1.000
    C296    C    0.19931   0.08133   0.69407   1.000
    C297    C    0.69932   0.08133   0.69407   1.000
    C298    C    0.21161   0.13577   0.74708   1.000
    C299    C    0.71162   0.13577   0.74708   1.000
    C300    C    0.32031   0.63337   0.99981   1.000
    C301    C    0.82033   0.63337   0.99981   1.000
    C302    C    0.39342   0.68466   0.98822   1.000
    C303    C    0.89344   0.68466   0.98820   1.000
    C304    C    0.37480   0.75532   0.97808   1.000
    C305    C    0.87481   0.75532   0.97808   1.000
    C306    C    0.44129   0.80330   0.96550   1.000
    C307    C    0.94130   0.80331   0.96550   1.000
    C308    C    0.02792   0.78027   0.96566   1.000
    C309    C    0.52794   0.78027   0.96566   1.000
    C310    C    0.04814   0.71017   0.97681   1.000
    C311    C    0.54816   0.71017   0.97681   1.000
    C312    C    0.48060   0.66267   0.98670   1.000
    C313    C    0.98062   0.66267   0.98672   1.000
    C314    C    0.05825   0.91804   0.04532   1.000
    C315    C    0.55827   0.91804   0.04532   1.000
    C316    C    0.11467   0.88851   0.99104   1.000
    C317    C    0.61469   0.88851   0.99104   1.000
    C318    C    0.16761   0.82115   0.90927   1.000
    C319    C    0.66763   0.82115   0.90927   1.000
    C320    C    0.17832   0.76314   0.85977   1.000
    C321    C    0.67834   0.76314   0.85977   1.000
    C322    C    0.13802   0.98513   0.39563   1.000
    C323    C    0.63804   0.98513   0.39563   1.000
    C324    C    0.06348   0.98620   0.34554   1.000
    C325    C    0.56350   0.98620   0.34554   1.000
    C326    C    0.08261   0.98150   0.27500   1.000
    C327    C    0.58262   0.98150   0.27529   1.000
    C328    C    0.01597   0.97894   0.22700   1.000
    C329    C    0.51598   0.97894   0.22700   1.000
    C330    C    0.42902   0.98156   0.24880   1.000
    C331    C    0.92903   0.98156   0.24880   1.000
    C332    C    0.40834   0.98775   0.31838   1.000
    C333    C    0.90836   0.98774   0.31838   1.000
    C334    C    0.47606   0.98983   0.36638   1.000
    C335    C    0.97607   0.98983   0.36638   1.000
    C336    C    0.40100   0.07663   0.12108   1.000
    C337    C    0.90102   0.07663   0.12108   1.000
    C338    C    0.35179   0.00000   0.13901   1.000
    C339    C    0.85180   0.00000   0.13901   1.000
    C340    C    0.30034   0.92079   0.19400   1.000
    C341    C    0.80036   0.92079   0.19400   1.000
    C342    C    0.28794   0.86632   0.24723   1.000
    C343    C    0.78796   0.86632   0.24723   1.000
    N344    N    0.18901   0.58704   0.47051   1.000
    N345    N    0.68903   0.58704   0.47051   1.000
    N346    N    0.22171   0.62801   0.41794   1.000
    N347    N    0.72172   0.62801   0.41794   1.000
    N348    N    0.09738   0.67292   0.45550   1.000
    N349    N    0.59739   0.67292   0.45557   1.000
    N350    N    0.28939   0.51879   0.60436   1.000
    N351    N    0.78941   0.51879   0.60436   1.000
    N352    N    0.25695   0.57635   0.63892   1.000
    N353    N    0.75697   0.57635   0.63892   1.000
    N354    N    0.36234   0.52795   0.70043   1.000
    N355    N    0.86236   0.52795   0.70043   1.000
    N356    N    0.31018   0.41484   0.97070   1.000
    N357    N    0.81019   0.41484   0.97070   1.000
    N358    N    0.27707   0.37395   0.91828   1.000
    N359    N    0.77708   0.37395   0.91828   1.000
    N360    N    0.40138   0.32871   0.95561   1.000
    N361    N    0.90140   0.32871   0.95561   1.000
    N362    N    0.21093   0.48353   0.10449   1.000
    N363    N    0.71094   0.48353   0.10449   1.000
    N364    N    0.24346   0.42591   0.13900   1.000
    N365    N    0.74348   0.42591   0.13900   1.000
    N366    N    0.13805   0.47408   0.20050   1.000
    N367    N    0.63806   0.47408   0.20058   1.000
    N368    N    0.31124   0.08697   0.46840   1.000
    N369    N    0.81126   0.08697   0.46846   1.000
    N370    N    0.27848   0.12875   0.41659   1.000
    N371    N    0.77850   0.12875   0.41659   1.000
    N372    N    0.40290   0.17321   0.45483   1.000
    N373    N    0.90291   0.17321   0.45483   1.000
    N374    N    0.21104   0.01843   0.60185   1.000
    N375    N    0.71105   0.01843   0.60185   1.000
    N376    N    0.24359   0.07616   0.63619   1.000
    N377    N    0.74360   0.07616   0.63619   1.000
    N378    N    0.13832   0.02779   0.69802   1.000
    N379    N    0.63834   0.02779   0.69802   1.000
    N380    N    0.18948   0.91505   0.96859   1.000
    N381    N    0.68950   0.91505   0.96859   1.000
    N382    N    0.22274   0.87337   0.91600   1.000
    N383    N    0.72275   0.87337   0.91689   1.000
    N384    N    0.09834   0.82850   0.95470   1.000
    N385    N    0.59836   0.82850   0.95477   1.000
    N386    N    0.28873   0.98382   0.10197   1.000
    N387    N    0.78875   0.98382   0.10197   1.000
    N388    N    0.25612   0.92604   0.13629   1.000
    N389    N    0.75614   0.92604   0.13629   1.000
    N390    N    0.36135   0.97429   0.19818   1.000
    N391    N    0.86136   0.97429   0.19818   1.000
    O392    O    0.34362   0.93289   0.50267   1.000
    O393    O    0.84364   0.93289   0.50267   1.000
    O394    O    0.24200   0.84765   0.50142   1.000
    O395    O    0.74202   0.84765   0.50142   1.000
    O396    O    0.12255   0.49973   0.96141   1.000
    O397    O    0.62256   0.49973   0.96141   1.000
    O398    O    0.21327   0.53449   0.87805   1.000
    O399    O    0.71328   0.53449   0.87805   1.000
    O400    O    0.15587   0.06906   0.00262   1.000
    O401    O    0.65588   0.06906   0.00262   1.000
    O402    O    0.25695   0.15469   0.00214   1.000
    O403    O    0.75697   0.15469   0.00213   1.000
    O404    O    0.37748   0.50296   0.46126   1.000
    O405    O    0.87749   0.50296   0.46126   1.000
    O406    O    0.28708   0.46732   0.37800   1.000
    O407    O    0.78710   0.46732   0.37807   1.000
    O408    O    0.15689   0.43269   0.50549   1.000
    O409    O    0.65691   0.43269   0.50549   1.000
    O410    O    0.25851   0.34762   0.50300   1.000
    O411    O    0.75853   0.34762   0.50300   1.000
    O412    O    0.37755   0.99986   0.95890   1.000
    O413    O    0.87757   0.99986   0.95890   1.000
    O414    O    0.28737   0.03499   0.87543   1.000
    O415    O    0.78738   0.03499   0.87543   1.000
    O416    O    0.34434   0.56876   0.00536   1.000
    O417    O    0.84436   0.56876   0.00536   1.000
    O418    O    0.24293   0.65387   0.00310   1.000
    O419    O    0.74295   0.65387   0.00310   1.000
    O420    O    0.12248   0.00284   0.45874   1.000
    O421    O    0.62250   0.00284   0.45874   1.000
    O422    O    0.21246   0.96721   0.37538   1.000
    O423    O    0.71247   0.96722   0.37538   1.000
loop_
    _geom_bond_atom_site_label_1
    _geom_bond_atom_site_label_2
    _geom_bond_distance
    _geom_bond_site_symmetry_2
    _ccdc_geom_bond_type
    Zn2    O416      1.98762      .   S
    Zn2    N362      2.13210      .   S
    Zn2    O396      2.01775  1_554   S
    Zn2    N356      2.04318  1_554   S
    Zn3    O417      1.98762      .   S
    Zn3    N363      2.13211      .   S
    Zn3    O397      2.01775  1_554   S
    Zn3    N357      2.04317  1_554   S
    Zn7    O401      2.02126      .   S
    Zn7    N387      2.07520  1_545   S
    Zn7    O413      2.03681  1_544   S
    Zn7    N381      2.01255  1_544   S
    Zn6    O400      2.02128      .   S
    Zn6    N386      2.07520  1_545   S
    Zn6    O412      2.03681  1_544   S
    Zn6    N380      2.01254  1_544   S
    O403   C213      1.25094  1_554   S
    O402   C212      1.25094  1_554   S
    O400   C212      1.29943  1_554   S
    O401   C213      1.29942  1_554   S
    O418   C300      1.25097  1_554   S
    O419   C301      1.25097  1_554   S
    O416   C300      1.29937  1_554   S
    O417   C301      1.29937  1_554   S
    H137   C315      1.10104      .   S
    H136   C314      1.10103      .   S
    H56    C226      1.10099      .   S
    H57    C227      1.10099      .   S
    C315   H141      1.09431      .   S
    C315   H139      1.09823      .   S
    C315   C317      1.47954  1_554   S
    C314   H140      1.09430      .   S
    C314   H138      1.09823      .   S
    C314   C316      1.47954  1_554   S
    C226   H60       1.09437      .   S
    C226   H58       1.09825      .   S
    C226   C228      1.47952  1_554   S
    C227   H61       1.09384      .   S
    C227   H59       1.09827      .   S
    C227   C229      1.47951  1_554   S
    H157   C337      1.09800      .   S
    H156   C336      1.09801      .   S
    H77    C249      1.09794      .   S
    H76    C248      1.09793      .   S
    H160   C336      1.09849      .   S
    H161   C337      1.09850      .   S
    H80    C248      1.09857      .   S
    H81    C249      1.09857      .   S
    N387   N389      1.38791      .   S
    N387   C339      1.24481  1_565   S
    N386   N388      1.38791      .   S
    N386   C338      1.24482  1_565   S
    N362   N364      1.38776      .   S
    N362   C250      1.32724      .   S
    N363   N365      1.38776      .   S
    N363   C251      1.32723      .   S
    C337   C339      1.68938      .   S
    C337   H159      1.09809      .   S
    C336   C338      1.68937      .   S
    C336   H158      1.09809      .   S
    C249   C251      1.48120      .   S
    C249   H79       1.09799      .   S
    C248   C250      1.48121      .   S
    C248   H78       1.09799      .   S
    N389   C341      1.31656      .   S
    N388   C340      1.31657      .   S
    N364   C252      1.31976      .   S
    N365   C253      1.31976      .   S
    C339   N391      1.26253  1_545   S
    C338   N390      1.26254  1_545   S
    C250   N366      1.37540      .   S
    C251   N367      1.37672      .   S
    H150   C328      1.08655      .   S
    H151   C329      1.08655      .   S
    H71    C241      1.08702      .   S
    H70    C240      1.08702      .   S
    C340   N390      1.39068      .   S
    C340   C342      1.48487      .   S
    C341   N391      1.39070      .   S
    C341   C343      1.48487      .   S
    C253   N367      1.39031      .   S
    C253   C255      1.48211      .   S
    C252   N366      1.39023      .   S
    C252   C254      1.48212      .   S
    N390   C330      1.43748      .   S
    N391   C331      1.43748      .   S
    N366   C242      1.43871      .   S
    N367   C243      1.43764      .   S
    H162   C342      1.09552      .   S
    H163   C343      1.09551      .   S
    C328   C331      1.39860  1_455   S
    C328   C326      1.38522      .   S
    C329   C330      1.39905      .   S
    C329   C327      1.38905      .   S
    H83    C255      1.09544      .   S
    H82    C254      1.09544      .   S
    C241   C242      1.39855  1_655   S
    C241   C239      1.38879      .   S
    C240   C243      1.39900      .   S
    C240   C238      1.38879      .   S
    C343   H165      1.09884      .   S
    C343   H167      1.10109      .   S
    C342   H164      1.09918      .   S
    C342   H166      1.10111      .   S
    C331   C333      1.39742      .   S
    C330   C332      1.39742      .   S
    C255   H85       1.09916      .   S
    C255   H87       1.09977      .   S
    C254   H84       1.09916      .   S
    C254   H86       1.10122      .   S
    C242   C244      1.39709      .   S
    C243   C245      1.39709      .   S
    H148   C326      1.08581      .   S
    H149   C327      1.08743      .   S
    H69    C239      1.08742      .   S
    H68    C238      1.08742      .   S
    C326   C324      1.40832      .   S
    C327   C325      1.40280      .   S
    C238   C236      1.40271      .   S
    C239   C237      1.40271      .   S
    C333   H153      1.08997      .   S
    C333   C335      1.39709      .   S
    C332   H152      1.08998      .   S
    C332   C334      1.39708      .   S
    H26    C188      1.09573      .   S
    H27    C189      1.09573      .   S
    H106   C276      1.09574      .   S
    H107   C277      1.09574      .   S
    C244   H72       1.09010      .   S
    C244   C246      1.39703      .   S
    C245   H73       1.09010      .   S
    C245   C247      1.39703      .   S
    H25    C189      1.09814      .   S
    H24    C188      1.09814      .   S
    H104   C276      1.09816      .   S
    H105   C277      1.09816      .   S
    C325   C334      1.40130      .   S
    C325   C323      1.50215      .   S
    C324   C335      1.40084  1_455   S
    C324   C322      1.50215      .   S
    C237   C246      1.40087  1_655   S
    C237   C235      1.50198      .   S
    C236   C247      1.40131      .   S
    C236   C234      1.50200      .   S
    C188   H22       1.10008      .   S
    C188   C186      1.48369      .   S
    C189   H23       1.10010      .   S
    C189   C187      1.48368      .   S
    C277   H103      1.10009      .   S
    C277   C275      1.48347      .   S
    C276   H102      1.10007      .   S
    C276   C274      1.48349      .   S
    C334   H154      1.08770      .   S
    C335   H155      1.08771      .   S
    C246   H74       1.08760      .   S
    C247   H75       1.08760      .   S
    O422   C322      1.25491      .   S
    O423   C323      1.25490      .   S
    O406   C234      1.25533      .   S
    O407   C235      1.25491      .   S
    C323   O421      1.29823  1_565   S
    C322   O420      1.29823  1_565   S
    C234   O404      1.29848      .   S
    C235   O405      1.29848      .   S
    C275   N371      1.31878      .   S
    C275   N373      1.38995      .   S
    C274   N370      1.31877      .   S
    C274   N372      1.38996      .   S
    C186   N346      1.31874      .   S
    C186   N348      1.38919      .   S
    C187   N347      1.31874      .   S
    C187   N349      1.39005      .   S
    N370   N368      1.38380      .   S
    N371   N369      1.38464      .   S
    N347   N345      1.38474      .   S
    N346   N344      1.38476      .   S
    N373   C265      1.43682      .   S
    N373   C273      1.37502      .   S
    N372   C264      1.43682      .   S
    N372   C272      1.37502      .   S
    N348   C176      1.43716      .   S
    N348   C184      1.37588      .   S
    N349   C177      1.43697      .   S
    N349   C185      1.37516      .   S
    H90    C262      1.09023      .   S
    H91    C263      1.09023      .   S
    H11    C175      1.09024      .   S
    H10    C174      1.08933      .   S
    O420   Zn4       2.03820  1_545   S
    O421   Zn5       2.03819  1_545   S
    O404   Zn0       2.03794      .   S
    O405   Zn1       2.03794      .   S
    C262   C265      1.39893  1_455   S
    C262   C260      1.39457      .   S
    C263   C264      1.39938      .   S
    C263   C261      1.39457      .   S
    C265   C267      1.39888      .   S
    C264   C266      1.39890      .   S
    C176   C175      1.39896  1_455   S
    C176   C178      1.39891      .   S
    C177   C174      1.39939      .   S
    C177   C179      1.39891      .   S
    C174   C172      1.39558      .   S
    C175   C173      1.39465      .   S
    N368   C272      1.32805      .   S
    N368   Zn4       2.05591  1_545   S
    N369   C273      1.32766      .   S
    N369   Zn5       2.05556  1_545   S
    N345   C185      1.32767      .   S
    N345   Zn1       2.05690      .   S
    N344   C184      1.32766      .   S
    N344   Zn0       2.05690      .   S
    C178   H12       1.08962      .   S
    C178   C181      1.39165  1_455   S
    C179   H13       1.08962      .   S
    C179   C180      1.39200      .   S
    C266   H92       1.08966      .   S
    C266   C269      1.39194      .   S
    C267   H93       1.08965      .   S
    C267   C268      1.39143  1_655   S
    C173   H9        1.08662      .   S
    C173   C171      1.40138      .   S
    C172   H8        1.08662      .   S
    C172   C170      1.40138      .   S
    C261   H89       1.08662      .   S
    C261   C259      1.40126      .   S
    C260   H88       1.08662      .   S
    C260   C258      1.40128      .   S
    C180   C170      1.40131      .   S
    C180   H14       1.08717      .   S
    C181   C171      1.40131      .   S
    C181   H15       1.08718      .   S
    C268   C258      1.40129      .   S
    C268   H94       1.08719      .   S
    C269   C259      1.40129      .   S
    C269   H95       1.08713      .   S
    C171   C169      1.50799      .   S
    C170   C168      1.50799      .   S
    C258   C256      1.50791      .   S
    C259   C257      1.50791      .   S
    C272   C270      1.47967      .   S
    C273   C271      1.47965      .   S
    C184   C182      1.47965      .   S
    C185   C183      1.47963      .   S
    C168   O394      1.25098      .   S
    C168   O392      1.29967      .   S
    C169   O395      1.25098      .   S
    C169   O393      1.29965      .   S
    C256   O410      1.25083      .   S
    C256   O408      1.29982      .   S
    C257   O411      1.25083      .   S
    C257   O409      1.29984      .   S
    Zn5    O393      1.98640      .   S
    Zn5    N375      2.08293  1_565   S
    Zn4    O392      1.98638      .   S
    Zn4    N374      2.08292  1_565   S
    Zn1    O409      1.98428      .   S
    Zn1    N351      2.08117      .   S
    Zn0    O408      1.98430      .   S
    Zn0    N350      2.08117      .   S
    H97    C271      1.09683  1_455   S
    H96    C270      1.10105      .   S
    H16    C182      1.10099      .   S
    H17    C183      1.10098      .   S
    C270   H100      1.09433      .   S
    C270   H98       1.09828      .   S
    C271   H101      1.09434      .   S
    C271   H99       1.09829      .   S
    C182   H20       1.09445      .   S
    C182   H18       1.09840      .   S
    C183   H21       1.09435      .   S
    C183   H19       1.09841      .   S
    H117   C293      1.09807      .   S
    H116   C292      1.09806      .   S
    H36    C204      1.09807      .   S
    H37    C205      1.09807      .   S
    H121   C293      1.09854      .   S
    H120   C292      1.09854      .   S
    H40    C204      1.09860      .   S
    H41    C205      1.09859      .   S
    N374   N376      1.38779      .   S
    N374   C294      1.32685  1_545   S
    N375   N377      1.38778      .   S
    N375   C295      1.32686  1_545   S
    N350   N352      1.38759      .   S
    N350   C206      1.32732      .   S
    N351   N353      1.38761      .   S
    N351   C207      1.32731      .   S
    C292   C294      1.48075      .   S
    C292   H118      1.09797      .   S
    C293   C295      1.48072      .   S
    C293   H119      1.09798      .   S
    C204   C206      1.48124      .   S
    C204   H38       1.09778      .   S
    C205   C207      1.48125      .   S
    C205   H39       1.09777      .   S
    N376   C296      1.31984      .   S
    N377   C297      1.31984      .   S
    C295   N379      1.37769  1_565   S
    C294   N378      1.37768  1_565   S
    N352   C208      1.31992      .   S
    N353   C209      1.31991      .   S
    C207   N355      1.37676      .   S
    C206   N354      1.37676      .   S
    H110   C284      1.08691      .   S
    H111   C285      1.08692      .   S
    H30    C196      1.08682      .   S
    H31    C197      1.08682      .   S
    C296   N378      1.39058      .   S
    C296   C298      1.48225      .   S
    C297   N379      1.39057      .   S
    C297   C299      1.48225      .   S
    C209   N355      1.39041      .   S
    C209   C211      1.48211      .   S
    C208   N354      1.39040      .   S
    C208   C210      1.48211      .   S
    N378   C286      1.43775      .   S
    N379   C287      1.43774      .   S
    N354   C198      1.43768      .   S
    N355   C199      1.43767      .   S
    H42    C210      1.17207      .   S
    H43    C211      1.17207      .   S
    H122   C298      1.09555      .   S
    H123   C299      1.09555      .   S
    C284   C287      1.39904      .   S
    C284   C282      1.38496      .   S
    C285   C286      1.39858  1_655   S
    C285   C283      1.38496      .   S
    C196   C199      1.39854  1_455   S
    C196   C194      1.38894      .   S
    C197   C198      1.39898      .   S
    C197   C195      1.38894      .   S
    C298   H124      1.09914      .   S
    C298   H126      1.10098      .   S
    C299   H125      1.09914      .   S
    C299   H127      1.10098      .   S
    C287   C289      1.39702      .   S
    C286   C288      1.39608      .   S
    C211   H45       1.09916      .   S
    C211   H47       1.10100      .   S
    C210   H44       1.09916      .   S
    C210   H46       1.10099      .   S
    C199   C201      1.39729      .   S
    C198   C200      1.39729      .   S
    H109   C283      1.08584      .   S
    H108   C282      1.08584      .   S
    H28    C194      1.08762      .   S
    H29    C195      1.08751      .   S
    C283   C281      1.40826      .   S
    C282   C280      1.40826      .   S
    C194   C192      1.40246      .   S
    C195   C193      1.40246      .   S
    C288   H112      1.12415      .   S
    C288   C290      1.39784      .   S
    C289   H113      1.12386      .   S
    C289   C291      1.39719      .   S
    C200   H32       1.09008      .   S
    C200   C202      1.39699      .   S
    C201   H33       1.09010      .   S
    C201   C203      1.39699      .   S
    H67    C233      1.09680      .   S
    H66    C232      1.09574      .   S
    H147   C321      1.09574      .   S
    H146   C320      1.09574      .   S
    H65    C233      1.09816      .   S
    H64    C232      1.09815      .   S
    H145   C321      1.09819      .   S
    H144   C320      1.09819      .   S
    C281   C290      1.40095  1_655   S
    C281   C279      1.50223      .   S
    C280   C291      1.40140      .   S
    C280   C278      1.50223      .   S
    C193   C202      1.40142      .   S
    C193   C191      1.50209      .   S
    C192   C203      1.40096  1_455   S
    C192   C190      1.50184      .   S
    C232   H62       1.10009      .   S
    C232   C230      1.48370      .   S
    C233   H63       1.09958      .   S
    C233   C231      1.48368      .   S
    C320   H142      1.10006      .   S
    C320   C318      1.48347      .   S
    C321   H143      1.10006      .   S
    C321   C319      1.48347      .   S
    C291   H115      1.11208      .   S
    C290   H114      1.11208      .   S
    C202   H34       1.08773      .   S
    C203   H35       1.08773      .   S
    O415   C279      1.25511      .   S
    O414   C278      1.25510      .   S
    O398   C190      1.25495      .   S
    O399   C191      1.25507      .   S
    C278   O412      1.29820  1_545   S
    C279   O413      1.29820  1_545   S
    C190   O396      1.29870      .   S
    C191   O397      1.29833      .   S
    C318   N382      1.31695      .   S
    C318   N384      1.38911      .   S
    C319   N383      1.31879      .   S
    C319   N385      1.38998      .   S
    C231   N359      1.31878      .   S
    C231   N361      1.39008      .   S
    C230   N358      1.31878      .   S
    C230   N360      1.39009      .   S
    N382   N380      1.39740      .   S
    N383   N381      1.38473      .   S
    N358   N356      1.38478      .   S
    N359   N357      1.38476      .   S
    N384   C308      1.43688      .   S
    N384   C316      1.37599      .   S
    N385   C309      1.43669      .   S
    N385   C317      1.37527      .   S
    H130   C306      1.09018      .   S
    H131   C307      1.09016      .   S
    N361   C221      1.43660      .   S
    N361   C229      1.37519      .   S
    N360   C220      1.43660      .   S
    N360   C228      1.37520      .   S
    H51    C219      1.09038      .   S
    H50    C218      1.09016      .   S
    C307   C308      1.39901  1_655   S
    C307   C305      1.39443      .   S
    C306   C309      1.39944      .   S
    C306   C304      1.39441      .   S
    C309   C311      1.39894      .   S
    C308   C310      1.39892      .   S
    C220   C219      1.39945      .   S
    C220   C222      1.39888      .   S
    C221   C218      1.39901  1_655   S
    C221   C223      1.39887      .   S
    C218   C216      1.39435      .   S
    C219   C217      1.39425      .   S
    N380   C316      1.32759      .   S
    N381   C317      1.32759      .   S
    N356   C228      1.32754      .   S
    N357   C229      1.32754      .   S
    C222   H52       1.08956      .   S
    C222   C225      1.39205      .   S
    C223   H53       1.08957      .   S
    C223   C224      1.39168  1_655   S
    C311   H133      1.08966      .   S
    C311   C312      1.39201      .   S
    C310   H132      1.08966      .   S
    C310   C313      1.39172  1_455   S
    C305   H129      1.08660      .   S
    C305   C303      1.40122      .   S
    C304   H128      1.08660      .   S
    C304   C302      1.40128      .   S
    C217   H49       1.08658      .   S
    C217   C215      1.40135      .   S
    C216   H48       1.08656      .   S
    C216   C214      1.40130      .   S
    C224   C214      1.40125      .   S
    C224   H54       1.08721      .   S
    C225   C215      1.40125      .   S
    C225   H55       1.08721      .   S
    C312   C302      1.40133      .   S
    C312   H134      1.08719      .   S
    C313   C303      1.40130      .   S
    C313   H135      1.08717      .   S
    C214   C212      1.50729      .   S
    C215   C213      1.50729      .   S
    C303   C301      1.50758      .   S
    C302   C300      1.50752      .   S
