# CIF file generated by openbabel 2.4.90, see http://openbabel.sf.net
data_I
_chemical_name_common ''
_cell_length_a 12.489
_cell_length_b 15.682
_cell_length_c 15.687
_cell_angle_alpha 120.01
_cell_angle_beta 90.011
_cell_angle_gamma 89.908
_space_group_name_H-M_alt 'P 1'
_space_group_name_Hall 'P 1'
loop_
    _symmetry_equiv_pos_as_xyz
    x,y,z
loop_
    _atom_site_label
    _atom_site_type_symbol
    _atom_site_fract_x
    _atom_site_fract_y
    _atom_site_fract_z
    _atom_site_occupancy
    Lv0     Lv   0.44275   0.16380   0.69517   1.000
    Lv1     Lv   0.77608   0.69504   0.53135   1.000
    Lv2     Lv   0.27609   0.69504   0.53145   1.000
    Lv3     Lv   0.10900   0.53181   0.83630   1.000
    Lv4     Lv   0.94275   0.16380   0.69518   1.000
    Lv5     Lv   0.44274   0.83595   0.30470   1.000
    Lv6     Lv   0.60894   0.46848   0.16371   1.000
    Lv7     Lv   0.60899   0.53181   0.83630   1.000
    Lv8     Lv   0.10895   0.46848   0.16371   1.000
    Lv9     Lv   0.27603   0.30468   0.46859   1.000
    Lv10    Lv   0.77602   0.30468   0.46860   1.000
    Lv11    Lv   0.94274   0.83595   0.30470   1.000
