# CIF file generated by openbabel 2.4.90, see http://openbabel.sf.net
data_I
_chemical_name_common ''
_cell_length_a 22.672
_cell_length_b 22.189
_cell_length_c 29.054
_cell_angle_alpha 90.096
_cell_angle_beta 90.041
_cell_angle_gamma 89.324
_space_group_name_H-M_alt 'P 1'
_space_group_name_Hall 'P 1'
loop_
    _symmetry_equiv_pos_as_xyz
    x,y,z
loop_
    _atom_site_label
    _atom_site_type_symbol
    _atom_site_fract_x
    _atom_site_fract_y
    _atom_site_fract_z
    _atom_site_occupancy
    H0      H    0.42954   0.98187   0.56000   1.000
    H1      H    0.92955   0.98187   0.56019   1.000
    H2      H    0.48105   0.97210   0.48480   1.000
    H3      H    0.98106   0.97210   0.48480   1.000
    H4      H    0.39848   0.80032   0.46285   1.000
    H5      H    0.89848   0.80032   0.46285   1.000
    H6      H    0.34725   0.81068   0.53858   1.000
    H7      H    0.84725   0.81068   0.53858   1.000
    H8      H    0.13948   0.70576   0.38284   1.000
    H9      H    0.63948   0.70576   0.38284   1.000
    H10     H    0.13602   0.75713   0.45923   1.000
    H11     H    0.63602   0.75713   0.45923   1.000
    H12     H    0.45879   0.69372   0.47921   1.000
    H13     H    0.95880   0.69372   0.47921   1.000
    H14     H    0.46253   0.64344   0.40214   1.000
    H15     H    0.96253   0.64344   0.40214   1.000
    H16     H    0.07007   0.01619   0.05970   1.000
    H17     H    0.57007   0.01619   0.05977   1.000
    H18     H    0.01847   0.02679   0.98446   1.000
    H19     H    0.51848   0.02679   0.98446   1.000
    H20     H    0.10089   0.19887   0.96410   1.000
    H21     H    0.60090   0.19887   0.96410   1.000
    H22     H    0.15228   0.18764   0.03970   1.000
    H23     H    0.65229   0.18764   0.03970   1.000
    H24     H    0.35829   0.29456   0.88326   1.000
    H25     H    0.85829   0.29457   0.88326   1.000
    H26     H    0.36229   0.24339   0.95958   1.000
    H27     H    0.86229   0.24340   0.95958   1.000
    H28     H    0.03987   0.30635   0.97885   1.000
    H29     H    0.53988   0.30634   0.97885   1.000
    H30     H    0.03556   0.35647   0.90189   1.000
    H31     H    0.53556   0.35646   0.90189   1.000
    H32     H    0.32046   0.48159   0.55833   1.000
    H33     H    0.82046   0.48159   0.55833   1.000
    H34     H    0.26913   0.47172   0.48293   1.000
    H35     H    0.76914   0.47173   0.48293   1.000
    H36     H    0.35115   0.29726   0.46321   1.000
    H37     H    0.85116   0.29726   0.46321   1.000
    H38     H    0.40218   0.30771   0.53890   1.000
    H39     H    0.90219   0.30771   0.53894   1.000
    H40     H    0.10998   0.20472   0.38304   1.000
    H41     H    0.60999   0.20472   0.38300   1.000
    H42     H    0.11364   0.25664   0.45917   1.000
    H43     H    0.61364   0.25664   0.45917   1.000
    H44     H    0.29205   0.19180   0.47830   1.000
    H45     H    0.79205   0.19179   0.47830   1.000
    H46     H    0.28810   0.14101   0.40149   1.000
    H47     H    0.78810   0.14101   0.40149   1.000
    H48     H    0.17977   0.51861   0.05821   1.000
    H49     H    0.67977   0.51861   0.05821   1.000
    H50     H    0.23107   0.52880   0.98292   1.000
    H51     H    0.73107   0.52880   0.98292   1.000
    H52     H    0.14800   0.70275   0.96350   1.000
    H53     H    0.64801   0.70275   0.96350   1.000
    H54     H    0.09694   0.69195   0.03909   1.000
    H55     H    0.59695   0.69195   0.03909   1.000
    C56     C    0.50035   0.30360   0.95764   1.000
    C57     C    0.00000   0.30361   0.95760   1.000
    C58     C    0.49792   0.33170   0.91497   1.000
    C59     C    0.99793   0.33170   0.91497   1.000
    C60     C    0.45145   0.24466   0.01839   1.000
    H61     H    0.38888   0.79418   0.88399   1.000
    H62     H    0.88889   0.79418   0.88399   1.000
    H63     H    0.38417   0.74294   0.96022   1.000
    H64     H    0.88418   0.74294   0.96022   1.000
    H65     H    0.20602   0.80920   0.97802   1.000
    H66     H    0.70603   0.80920   0.97802   1.000
    H67     H    0.21107   0.85942   0.90119   1.000
    H68     H    0.71108   0.85942   0.90119   1.000
    C69     C    0.38485   0.89707   0.55389   1.000
    C70     C    0.88485   0.89707   0.55389   1.000
    C71     C    0.42284   0.94242   0.53857   1.000
    C72     C    0.92285   0.94242   0.53857   1.000
    C73     C    0.45160   0.93690   0.49659   1.000
    C74     C    0.95160   0.93690   0.49659   1.000
    C75     C    0.44301   0.88565   0.46851   1.000
    C76     C    0.94301   0.88565   0.46851   1.000
    C77     C    0.40504   0.84000   0.48428   1.000
    C78     C    0.90505   0.84000   0.48428   1.000
    C79     C    0.37650   0.84576   0.52632   1.000
    C80     C    0.87651   0.84576   0.52632   1.000
    C81     C    0.47106   0.88053   0.42513   1.000
    C82     C    0.97106   0.88053   0.42513   1.000
    C83     C    0.49381   0.87684   0.38714   1.000
    C84     C    0.99381   0.87684   0.38714   1.000
    C85     C    0.05145   0.67111   0.38813   1.000
    C86     C    0.55145   0.67111   0.38813   1.000
    C87     C    0.10024   0.70349   0.40420   1.000
    C88     C    0.60024   0.70349   0.40420   1.000
    C89     C    0.09828   0.73201   0.44664   1.000
    C90     C    0.59829   0.73201   0.44664   1.000
    C91     C    0.04732   0.72846   0.47440   1.000
    C92     C    0.54733   0.72846   0.47440   1.000
    C93     C    0.99809   0.69652   0.45781   1.000
    C94     C    0.49810   0.69652   0.45781   1.000
    C95     C    0.00020   0.66835   0.41509   1.000
    C96     C    0.50021   0.66835   0.41509   1.000
    C97     C    0.04746   0.75561   0.51843   1.000
    C98     C    0.54747   0.75561   0.51843   1.000
    C99     C    0.05149   0.77813   0.55660   1.000
    C100    C    0.55149   0.77813   0.55660   1.000
    C101    C    0.79453   0.74581   0.01827   1.000
    C102    C    0.29847   0.72309   0.05637   1.000
    C103    C    0.79848   0.72309   0.05637   1.000
    C104    C    0.11477   0.10105   0.05422   1.000
    C105    C    0.61478   0.10105   0.05422   1.000
    C106    C    0.07674   0.05589   0.03851   1.000
    C107    C    0.57674   0.05589   0.03851   1.000
    C108    C    0.04792   0.06187   0.99656   1.000
    C109    C    0.54792   0.06187   0.99656   1.000
    C110    C    0.05647   0.11342   0.96894   1.000
    C111    C    0.55647   0.11342   0.96894   1.000
    C112    C    0.09438   0.15894   0.98516   1.000
    C113    C    0.59439   0.15894   0.98516   1.000
    C114    C    0.12300   0.15269   0.02713   1.000
    C115    C    0.62301   0.15269   0.02713   1.000
    C116    C    0.02851   0.11889   0.92553   1.000
    C117    C    0.52851   0.11889   0.92553   1.000
    C118    C    0.00595   0.12274   0.88745   1.000
    C119    C    0.50596   0.12274   0.88745   1.000
    C120    C    0.44644   0.32901   0.88820   1.000
    C121    C    0.94645   0.32901   0.88820   1.000
    C122    C    0.39772   0.29679   0.90453   1.000
    C123    C    0.89773   0.29680   0.90453   1.000
    C124    C    0.39998   0.26838   0.94687   1.000
    C125    C    0.89999   0.26839   0.94680   1.000
    C126    C    0.45120   0.27181   0.97446   1.000
    C127    C    0.95121   0.27182   0.97446   1.000
    C128    C    0.95145   0.24467   0.01839   1.000
    C129    C    0.44788   0.22206   0.05652   1.000
    C130    C    0.94789   0.22207   0.05650   1.000
    C131    C    0.36490   0.39546   0.55317   1.000
    C132    C    0.86491   0.39546   0.55317   1.000
    C133    C    0.32710   0.44152   0.53721   1.000
    C134    C    0.82710   0.44152   0.53721   1.000
    C135    C    0.29842   0.43594   0.49520   1.000
    C136    C    0.79843   0.43594   0.49520   1.000
    C137    C    0.30690   0.38393   0.46770   1.000
    C138    C    0.80690   0.38393   0.46770   1.000
    C139    C    0.34464   0.33755   0.48414   1.000
    C140    C    0.84465   0.33755   0.48414   1.000
    C141    C    0.37309   0.34337   0.52620   1.000
    C142    C    0.87309   0.34337   0.52620   1.000
    C143    C    0.27895   0.37891   0.42426   1.000
    C144    C    0.77895   0.37891   0.42420   1.000
    C145    C    0.25617   0.37559   0.38625   1.000
    C146    C    0.75618   0.37559   0.38625   1.000
    C147    C    0.19856   0.16928   0.38793   1.000
    C148    C    0.69857   0.16928   0.38793   1.000
    C149    C    0.14952   0.20226   0.40420   1.000
    C150    C    0.64953   0.20226   0.40423   1.000
    C151    C    0.15159   0.23108   0.44647   1.000
    C152    C    0.65159   0.23108   0.44647   1.000
    C153    C    0.20292   0.22726   0.47399   1.000
    C154    C    0.70292   0.22726   0.47399   1.000
    C155    C    0.25242   0.19480   0.45716   1.000
    C156    C    0.75243   0.19480   0.45716   1.000
    C157    C    0.25019   0.16632   0.41457   1.000
    C158    C    0.75020   0.16632   0.41457   1.000
    C159    C    0.20280   0.25456   0.51795   1.000
    C160    C    0.70281   0.25456   0.51795   1.000
    C161    C    0.19869   0.27708   0.55610   1.000
    C162    C    0.69870   0.27708   0.55610   1.000
    C163    C    0.13477   0.60445   0.05317   1.000
    C164    C    0.63477   0.60445   0.05317   1.000
    C165    C    0.17289   0.55864   0.03717   1.000
    C166    C    0.67289   0.55864   0.03717   1.000
    C167    C    0.20154   0.56439   0.99522   1.000
    C168    C    0.70154   0.56439   0.99522   1.000
    C169    C    0.19277   0.61635   0.96784   1.000
    C170    C    0.69277   0.61635   0.96784   1.000
    C171    C    0.15473   0.66249   0.98434   1.000
    C172    C    0.65474   0.66249   0.98434   1.000
    C173    C    0.12627   0.65648   0.02631   1.000
    C174    C    0.62628   0.65648   0.02631   1.000
    C175    C    0.22070   0.62152   0.92446   1.000
    C176    C    0.72070   0.62152   0.92440   1.000
    C177    C    0.24342   0.62493   0.88646   1.000
    C178    C    0.74343   0.62493   0.88646   1.000
    C179    C    0.30051   0.83031   0.88822   1.000
    C180    C    0.80051   0.83031   0.88822   1.000
    C181    C    0.34917   0.79711   0.90492   1.000
    C182    C    0.84918   0.79711   0.90492   1.000
    C183    C    0.34652   0.76866   0.94720   1.000
    C184    C    0.84652   0.76866   0.94720   1.000
    C185    C    0.29494   0.77301   0.97436   1.000
    C186    C    0.79495   0.77301   0.97436   1.000
    C187    C    0.24584   0.80575   0.95716   1.000
    C188    C    0.74584   0.80575   0.95716   1.000
    C189    C    0.24867   0.83391   0.91455   1.000
    C190    C    0.74868   0.83391   0.91455   1.000
    C191    C    0.29453   0.74581   0.01827   1.000
loop_
    _geom_bond_atom_site_label_1
    _geom_bond_atom_site_label_2
    _geom_bond_distance
    _geom_bond_site_symmetry_2
    _ccdc_geom_bond_type
    C101   C103      1.21992      .   S
    C101   C186      1.41234  1_554   S
    C191   C102      1.21992      .   S
    C191   C185      1.41234  1_554   S
    C60    C129      1.21992      .   S
    C60    C126      1.41232  1_554   S
    C128   C130      1.21940      .   S
    C128   C127      1.41232  1_554   S
    C173   H54       1.08924      .   S
    C173   C163      1.40585      .   S
    C173   C171      1.38737  1_554   S
    C174   H55       1.08924      .   S
    C174   C164      1.40584      .   S
    C174   C172      1.38737  1_554   S
    C114   H22       1.08908      .   S
    C114   C104      1.40551      .   S
    C114   C112      1.38722  1_554   S
    C115   H23       1.08907      .   S
    C115   C105      1.40550      .   S
    C115   C113      1.38722  1_554   S
    C165   C163      1.40522      .   S
    C165   H48       1.08865      .   S
    C165   C167      1.38831  1_554   S
    C166   C164      1.40522      .   S
    C166   H49       1.08866      .   S
    C166   C168      1.38831  1_554   S
    C106   C104      1.40520      .   S
    C106   H16       1.08763      .   S
    C106   C108      1.38832  1_554   S
    C107   C105      1.40521      .   S
    C107   H17       1.08877      .   S
    C107   C109      1.38832  1_554   S
    H8     C87       1.08682      .   S
    H9     C88       1.08680      .   S
    H41    C150      1.08865      .   S
    H40    C149      1.08752      .   S
    C145   C143      1.22122      .   S
    C146   C144      1.21965      .   S
    C84    C82       1.22088      .   S
    C83    C81       1.22088      .   S
    C147   C149      1.40556      .   S
    C147   C157      1.40381      .   S
    C148   C150      1.40586      .   S
    C148   C158      1.40381      .   S
    C86    C88       1.40531      .   S
    C86    C96       1.40365      .   S
    C85    C87       1.40531      .   S
    C85    C95       1.40365      .   S
    H46    C157      1.08942      .   S
    H47    C158      1.08940      .   S
    H15    C95       1.08918  1_655   S
    H14    C96       1.08944      .   S
    C87    C89       1.38547      .   S
    C88    C90       1.38546      .   S
    C149   C151      1.38473      .   S
    C150   C152      1.38396      .   S
    C158   C156      1.38965      .   S
    C157   C155      1.38965      .   S
    C96    C94       1.38944      .   S
    C95    C93       1.38944  1_455   S
    C144   C138      1.41822      .   S
    C143   C137      1.41668      .   S
    C82    C76       1.41593      .   S
    C81    C75       1.41593      .   S
    C151   H42       1.08917      .   S
    C151   C153      1.41329      .   S
    C152   H43       1.08919      .   S
    C152   C154      1.41327      .   S
    C89    H10       1.08928      .   S
    C89    C91       1.41253      .   S
    C90    H11       1.08927      .   S
    C90    C92       1.41253      .   S
    C155   C153      1.41357      .   S
    C155   H44       1.08936      .   S
    C156   C154      1.41356      .   S
    C156   H45       1.08937      .   S
    C94    C92       1.41319      .   S
    C94    H12       1.08945      .   S
    C93    C91       1.41320  1_655   S
    C93    H13       1.08921      .   S
    H4     C77       1.08900      .   S
    H5     C78       1.08900      .   S
    H37    C140      1.08909      .   S
    H36    C139      1.08909      .   S
    C138   C140      1.41422      .   S
    C138   C136      1.41386      .   S
    C137   C139      1.41420      .   S
    C137   C135      1.41385      .   S
    C76    C78       1.41408      .   S
    C76    C74       1.41367      .   S
    C75    C77       1.41408      .   S
    C75    C73       1.41367      .   S
    C153   C159      1.41261      .   S
    C154   C160      1.41261      .   S
    C91    C97       1.41308      .   S
    C92    C98       1.41308      .   S
    H35    C136      1.08939      .   S
    H34    C135      1.08937      .   S
    C140   C142      1.38787      .   S
    C139   C141      1.38787      .   S
    C78    C80       1.38761      .   S
    C77    C79       1.38762      .   S
    H2     C73       1.08942      .   S
    H3     C74       1.08942      .   S
    C136   C134      1.38848      .   S
    C135   C133      1.38849      .   S
    C74    C72       1.38799      .   S
    C73    C71       1.38799      .   S
    C159   C161      1.21826      .   S
    C160   C162      1.21826      .   S
    C97    C99       1.21942      .   S
    C98    C100      1.21942      .   S
    C142   H39       1.08927      .   S
    C142   C132      1.40582      .   S
    C141   H38       1.08891      .   S
    C141   C131      1.40580      .   S
    C79    H6        1.08919      .   S
    C79    C69       1.40554      .   S
    C80    H7        1.08921      .   S
    C80    C70       1.40553      .   S
    C134   C132      1.40526      .   S
    C134   H33       1.08862      .   S
    C133   C131      1.40525      .   S
    C133   H32       1.08862      .   S
    C71    C69       1.40533      .   S
    C71    H0        1.08546      .   S
    C72    C70       1.40533      .   S
    C72    H1        1.08863      .   S
    H24    C122      1.08807      .   S
    H25    C123      1.08807      .   S
    H62    C182      1.08808      .   S
    H61    C181      1.08810      .   S
    C178   C176      1.21998      .   S
    C177   C175      1.22156      .   S
    C118   C116      1.22121      .   S
    C119   C117      1.22122      .   S
    C120   C122      1.40599      .   S
    C120   C58       1.40385      .   S
    C121   C123      1.40599      .   S
    C121   C59       1.40386      .   S
    C179   C181      1.40591      .   S
    C179   C189      1.40406      .   S
    C180   C182      1.40593      .   S
    C180   C190      1.40406      .   S
    H67    C189      1.08943      .   S
    H68    C190      1.08942      .   S
    H31    C58       1.08945      .   S
    H30    C59       1.08919  1_455   S
    C123   C125      1.38204      .   S
    C122   C124      1.38388      .   S
    C181   C183      1.38375      .   S
    C182   C184      1.38375      .   S
    C190   C188      1.38954      .   S
    C189   C187      1.38953      .   S
    C59    C57       1.38805  1_655   S
    C58    C56       1.38936      .   S
    C176   C170      1.41787      .   S
    C175   C169      1.41632      .   S
    C116   C110      1.41592      .   S
    C117   C111      1.41592      .   S
    C125   H27       1.08994      .   S
    C125   C127      1.41447      .   S
    C124   H26       1.08926      .   S
    C124   C126      1.41331      .   S
    C184   H64       1.08925      .   S
    C184   C186      1.41343      .   S
    C183   H63       1.08927      .   S
    C183   C185      1.41341      .   S
    C188   C186      1.41356      .   S
    C188   H66       1.08949      .   S
    C187   C185      1.41356      .   S
    C187   H65       1.08949      .   S
    C57    C127      1.40768  1_455   S
    C57    H28       1.09653      .   S
    C56    C126      1.41366      .   S
    C56    H29       1.08949      .   S
    H53    C172      1.08925      .   S
    H52    C171      1.08925      .   S
    H21    C113      1.08912      .   S
    H20    C112      1.08915      .   S
    C170   C172      1.41422      .   S
    C170   C168      1.41387      .   S
    C169   C171      1.41422      .   S
    C169   C167      1.41389      .   S
    C111   C113      1.41408      .   S
    C111   C109      1.41371      .   S
    C110   C112      1.41408      .   S
    C110   C108      1.41371      .   S
    H51    C168      1.08922      .   S
    H50    C167      1.08922      .   S
    H19    C109      1.08901      .   S
    H18    C108      1.08899      .   S
