# CIF file generated by openbabel 2.4.90, see http://openbabel.sf.net
data_I
_chemical_name_common ''
_cell_length_a 22.672
_cell_length_b 22.189
_cell_length_c 29.054
_cell_angle_alpha 90.096
_cell_angle_beta 90.041
_cell_angle_gamma 89.324
_space_group_name_H-M_alt 'P 1'
_space_group_name_Hall 'P 1'
loop_
    _symmetry_equiv_pos_as_xyz
    x,y,z
loop_
    _atom_site_label
    _atom_site_type_symbol
    _atom_site_fract_x
    _atom_site_fract_y
    _atom_site_fract_z
    _atom_site_occupancy
    H0      H    0.05379   0.96270   0.34162   1.000
    H1      H    0.55379   0.96270   0.34162   1.000
    H2      H    0.08212   0.85977   0.21751   1.000
    H3      H    0.58212   0.85977   0.21751   1.000
    H4      H    0.48934   0.78076   0.33096   1.000
    H5      H    0.98935   0.78076   0.33096   1.000
    H6      H    0.14979   0.81221   0.60244   1.000
    H7      H    0.64980   0.81221   0.60244   1.000
    H8      H    0.06031   0.87009   0.72500   1.000
    H9      H    0.56032   0.87009   0.72500   1.000
    H10     H    0.46023   0.79743   0.61312   1.000
    H11     H    0.96024   0.79743   0.61312   1.000
    H12     H    0.44719   0.03612   0.84176   1.000
    H13     H    0.94719   0.03612   0.84176   1.000
    H14     H    0.41768   0.13831   0.71700   1.000
    H15     H    0.91769   0.13831   0.71700   1.000
    H16     H    0.00929   0.21893   0.83138   1.000
    H17     H    0.50930   0.21893   0.83138   1.000
    H18     H    0.34986   0.18823   0.10254   1.000
    H19     H    0.84987   0.18823   0.10254   1.000
    H20     H    0.44005   0.12883   0.22490   1.000
    H21     H    0.94005   0.12883   0.22490   1.000
    H22     H    0.03959   0.20202   0.11262   1.000
    H23     H    0.53959   0.20201   0.11262   1.000
    H24     H    0.19745   0.46323   0.34003   1.000
    H25     H    0.69746   0.46323   0.34003   1.000
    H26     H    0.16763   0.35999   0.21658   1.000
    H27     H    0.66763   0.35999   0.21658   1.000
    C28     C    0.60881   0.81878   0.62138   1.000
    C29     C    0.11085   0.84252   0.66596   1.000
    C30     C    0.61086   0.84252   0.66596   1.000
    C31     C    0.05871   0.85120   0.69106   1.000
    H32     H    0.25907   0.27863   0.33075   1.000
    H33     H    0.75908   0.27863   0.33075   1.000
    H34     H    0.09969   0.31011   0.60229   1.000
    H35     H    0.59970   0.31011   0.60229   1.000
    H36     H    0.18800   0.36848   0.72533   1.000
    H37     H    0.68800   0.36848   0.72533   1.000
    H38     H    0.28979   0.29723   0.61240   1.000
    H39     H    0.78979   0.29723   0.61240   1.000
    H40     H    0.30177   0.53703   0.84000   1.000
    H41     H    0.80178   0.53703   0.84019   1.000
    H42     H    0.33200   0.63980   0.71690   1.000
    H43     H    0.83200   0.63980   0.71690   1.000
    H44     H    0.24068   0.72176   0.83099   1.000
    H45     H    0.74069   0.72176   0.83099   1.000
    H46     H    0.39756   0.68909   0.10188   1.000
    H47     H    0.89757   0.68909   0.10188   1.000
    H48     H    0.30998   0.63075   0.22500   1.000
    H49     H    0.80998   0.63075   0.22500   1.000
    H50     H    0.20762   0.70308   0.11293   1.000
    H51     H    0.70763   0.70308   0.11293   1.000
    C52     C    0.01833   0.87234   0.34233   1.000
    C53     C    0.51833   0.87234   0.34233   1.000
    C54     C    0.04835   0.92096   0.32247   1.000
    C55     C    0.54836   0.92096   0.32247   1.000
    C56     C    0.07109   0.91655   0.27775   1.000
    C57     C    0.57110   0.91655   0.27775   1.000
    C58     C    0.06445   0.86341   0.25223   1.000
    C59     C    0.56446   0.86341   0.25223   1.000
    C60     C    0.03485   0.81473   0.27175   1.000
    C61     C    0.53485   0.81473   0.27175   1.000
    C62     C    0.01206   0.81915   0.31636   1.000
    C63     C    0.51207   0.81915   0.31636   1.000
    C64     C    0.05449   0.80277   0.60150   1.000
    C65     C    0.55450   0.80277   0.60150   1.000
    C66     C    0.10880   0.81878   0.62138   1.000
    C67     C    0.30201   0.69823   0.10116   1.000
    C68     C    0.80202   0.69822   0.10116   1.000
    C69     C    0.35681   0.68235   0.12088   1.000
    C70     C    0.85682   0.68235   0.12088   1.000
    C71     C    0.35965   0.65858   0.16539   1.000
    C72     C    0.55872   0.85120   0.69106   1.000
    C73     C    0.00469   0.83448   0.67182   1.000
    C74     C    0.50470   0.83448   0.67182   1.000
    C75     C    0.00258   0.81032   0.62748   1.000
    C76     C    0.50259   0.81032   0.62748   1.000
    C77     C    0.48151   0.12695   0.84258   1.000
    C78     C    0.98152   0.12695   0.84258   1.000
    C79     C    0.45213   0.07785   0.82262   1.000
    C80     C    0.95214   0.07785   0.82262   1.000
    C81     C    0.42943   0.08178   0.77787   1.000
    C82     C    0.92944   0.08178   0.77787   1.000
    C83     C    0.43538   0.13501   0.75243   1.000
    C84     C    0.93538   0.13501   0.75243   1.000
    C85     C    0.46425   0.18422   0.77205   1.000
    C86     C    0.96425   0.18422   0.77205   1.000
    C87     C    0.48709   0.18019   0.81669   1.000
    C88     C    0.98710   0.18019   0.81669   1.000
    C89     C    0.44520   0.19717   0.10131   1.000
    C90     C    0.94521   0.19718   0.10131   1.000
    C91     C    0.39096   0.18130   0.12128   1.000
    C92     C    0.89097   0.18131   0.12128   1.000
    C93     C    0.38913   0.15723   0.16571   1.000
    C94     C    0.88914   0.15723   0.16571   1.000
    C95     C    0.44146   0.14801   0.19051   1.000
    C96     C    0.94146   0.14802   0.19051   1.000
    C97     C    0.49543   0.16460   0.17120   1.000
    C98     C    0.99543   0.16460   0.17120   1.000
    C99     C    0.49730   0.18918   0.12703   1.000
    C100    C    0.99730   0.18918   0.12700   1.000
    C101    C    0.23158   0.37152   0.34142   1.000
    C102    C    0.73158   0.37152   0.34142   1.000
    C103    C    0.20230   0.42108   0.32110   1.000
    C104    C    0.70230   0.42108   0.32110   1.000
    C105    C    0.17953   0.41710   0.27642   1.000
    C106    C    0.67954   0.41710   0.27642   1.000
    C107    C    0.18534   0.36334   0.25130   1.000
    C108    C    0.68535   0.36334   0.25130   1.000
    C109    C    0.21410   0.31367   0.27123   1.000
    C110    C    0.71411   0.31367   0.27123   1.000
    C111    C    0.23697   0.31776   0.31584   1.000
    C112    C    0.73698   0.31776   0.31584   1.000
    C113    C    0.19528   0.30164   0.60111   1.000
    C114    C    0.69529   0.30164   0.60111   1.000
    C115    C    0.14056   0.31705   0.62114   1.000
    C116    C    0.64057   0.31705   0.62114   1.000
    C117    C    0.13799   0.34062   0.66570   1.000
    C118    C    0.63800   0.34062   0.66570   1.000
    C119    C    0.18999   0.34974   0.69070   1.000
    C120    C    0.69000   0.34974   0.69070   1.000
    C121    C    0.24444   0.33367   0.67135   1.000
    C122    C    0.74445   0.33367   0.67135   1.000
    C123    C    0.24710   0.30965   0.62696   1.000
    C124    C    0.74711   0.30965   0.62696   1.000
    C125    C    0.26800   0.62887   0.84166   1.000
    C126    C    0.76800   0.62887   0.84166   1.000
    C127    C    0.29710   0.57915   0.82137   1.000
    C128    C    0.79710   0.57915   0.82137   1.000
    C129    C    0.31987   0.58294   0.77666   1.000
    C130    C    0.81988   0.58294   0.77666   1.000
    C131    C    0.31427   0.63661   0.75159   1.000
    C132    C    0.81427   0.63661   0.75159   1.000
    C133    C    0.28560   0.68638   0.77151   1.000
    C134    C    0.78560   0.68638   0.77151   1.000
    C135    C    0.26271   0.68254   0.81610   1.000
    C136    C    0.76272   0.68254   0.81610   1.000
    C137    C    0.85966   0.65858   0.16539   1.000
    C138    C    0.30779   0.64965   0.19052   1.000
    C139    C    0.80779   0.64965   0.19052   1.000
    C140    C    0.25324   0.66606   0.17141   1.000
    C141    C    0.75325   0.66606   0.17141   1.000
    C142    C    0.25037   0.69035   0.12716   1.000
    C143    C    0.75037   0.69035   0.12716   1.000
loop_
    _geom_bond_atom_site_label_1
    _geom_bond_atom_site_label_2
    _geom_bond_distance
    _geom_bond_site_symmetry_2
    _ccdc_geom_bond_type
    C67    C69       1.40897      .   S
    C67    C142      1.40668      .   S
    C68    C70       1.40899      .   S
    C68    C143      1.40668      .   S
    C90    C92       1.40878      .   S
    C90    C100      1.40635      .   S
    C89    C91       1.40880      .   S
    C89    C99       1.40679      .   S
    H46    C69       1.08849      .   S
    H47    C70       1.08847      .   S
    H18    C91       1.08838      .   S
    H19    C92       1.08840      .   S
    H23    C99       1.08786      .   S
    H22    C100      1.08725  1_455   S
    H50    C142      1.08782      .   S
    H51    C143      1.08779      .   S
    C70    C137      1.39860      .   S
    C69    C71       1.39860      .   S
    C91    C93       1.39870      .   S
    C92    C94       1.39872      .   S
    C100   C98       1.39691      .   S
    C99    C97       1.39609      .   S
    C143   C141      1.39606      .   S
    C142   C140      1.39606      .   S
    C71    C138      1.40076      .   S
    C137   C139      1.40074      .   S
    C94    C96       1.40066      .   S
    C93    C95       1.40066      .   S
    C98    C96       1.39992      .   S
    C97    C95       1.39993      .   S
    C141   C139      1.39975      .   S
    C140   C138      1.39975      .   S
    C96    H21       1.08735      .   S
    C95    H20       1.08734      .   S
    C138   H48       1.08752      .   S
    C139   H49       1.08751      .   S
    H27    C108      1.08827      .   S
    H26    C107      1.08827      .   S
    H2     C58       1.08817      .   S
    H3     C59       1.08817      .   S
    C108   C110      1.40007      .   S
    C108   C106      1.40220      .   S
    C107   C109      1.40006      .   S
    C107   C105      1.40220      .   S
    C59    C61       1.39947      .   S
    C59    C57       1.40141      .   S
    C58    C60       1.39948      .   S
    C58    C56       1.40140      .   S
    C109   C111      1.39887      .   S
    C110   C112      1.39886      .   S
    C60    C62       1.39847      .   S
    C61    C63       1.39848      .   S
    C105   C103      1.39967      .   S
    C106   C104      1.39966      .   S
    C57    C55       1.40103      .   S
    C56    C54       1.40102      .   S
    C111   H32       1.08770      .   S
    C111   C101      1.40847      .   S
    C112   H33       1.08770      .   S
    C112   C102      1.40847      .   S
    C63    H4        1.08766      .   S
    C63    C53       1.40834      .   S
    C62    H5        1.08750  1_455   S
    C62    C52       1.40836      .   S
    C104   H25       1.08870      .   S
    C104   C102      1.40825      .   S
    C103   H24       1.08870      .   S
    C103   C101      1.40825      .   S
    C55    H1        1.08776      .   S
    C55    C53       1.40717      .   S
    C54    H0        1.08778      .   S
    C54    C52       1.40717      .   S
    C113   C115      1.40878      .   S
    C113   C123      1.40687      .   S
    C114   C116      1.40880      .   S
    C114   C124      1.40687      .   S
    C65    C28       1.40871      .   S
    C65    C76       1.40681      .   S
    C64    C66       1.40873      .   S
    C64    C75       1.40681      .   S
    H35    C116      1.08837      .   S
    H34    C115      1.08839      .   S
    H7     C28       1.08847      .   S
    H6     C66       1.08847      .   S
    H39    C124      1.08877      .   S
    H38    C123      1.08877      .   S
    H10    C76       1.08786      .   S
    H11    C75       1.08760  1_655   S
    C115   C117      1.39648      .   S
    C116   C118      1.39648      .   S
    C66    C29       1.39845      .   S
    C28    C30       1.39845      .   S
    C124   C122      1.39567      .   S
    C123   C121      1.39567      .   S
    C76    C74       1.39555      .   S
    C75    C73       1.39555      .   S
    C118   C120      1.40085      .   S
    C117   C119      1.40087      .   S
    C30    C72       1.40056      .   S
    C29    C31       1.40056      .   S
    C122   C120      1.39908      .   S
    C121   C119      1.39906      .   S
    C73    C31       1.39966      .   S
    C74    C72       1.39966      .   S
    C119   H36       1.08877      .   S
    C120   H37       1.08877      .   S
    C31    H8        1.07157      .   S
    C72    H9        1.07157      .   S
    H42    C131      1.08807      .   S
    H43    C132      1.08807      .   S
    H14    C83       1.10673      .   S
    H15    C84       1.10673      .   S
    C132   C134      1.39960      .   S
    C132   C130      1.40141      .   S
    C131   C133      1.39960      .   S
    C131   C129      1.40141      .   S
    C84    C86       1.40004      .   S
    C84    C82       1.40227      .   S
    C83    C85       1.40004      .   S
    C83    C81       1.40227      .   S
    C134   C136      1.39898      .   S
    C133   C135      1.39897      .   S
    C85    C87       1.39884      .   S
    C86    C88       1.39884      .   S
    C130   C128      1.40127      .   S
    C129   C127      1.40126      .   S
    C81    C79       1.40048      .   S
    C82    C80       1.40048      .   S
    C135   H44       1.08764      .   S
    C135   C125      1.40840      .   S
    C136   H45       1.08767      .   S
    C136   C126      1.40840      .   S
    C88    H16       1.08765  1_655   S
    C88    C78       1.40845      .   S
    C87    H17       1.08780      .   S
    C87    C77       1.40847      .   S
    C127   H40       1.08492      .   S
    C127   C125      1.40751      .   S
    C128   H41       1.08771      .   S
    C128   C126      1.40749      .   S
    C80    H13       1.08791      .   S
    C80    C78       1.40756      .   S
    C79    H12       1.08791      .   S
    C79    C77       1.40754      .   S
