# CIF file generated by openbabel 2.4.90, see http://openbabel.sf.net
data_I
_chemical_name_common ''
_cell_length_a 22.672
_cell_length_b 22.189
_cell_length_c 29.054
_cell_angle_alpha 90.096
_cell_angle_beta 90.041
_cell_angle_gamma 89.324
_space_group_name_H-M_alt 'P 1'
_space_group_name_Hall 'P 1'
loop_
    _symmetry_equiv_pos_as_xyz
    x,y,z
loop_
    _atom_site_label
    _atom_site_type_symbol
    _atom_site_fract_x
    _atom_site_fract_y
    _atom_site_fract_z
    _atom_site_occupancy
    C0      C    0.35496   0.90197   0.59935   1.000
    C1      C    0.85496   0.90197   0.59935   1.000
    C2      C    0.10096   0.97018   0.25795   1.000
    C3      C    0.60097   0.97018   0.25795   1.000
    C4      C    0.02806   0.75644   0.24615   1.000
    C5      C    0.52807   0.75644   0.24615   1.000
    C6      C    0.05519   0.64142   0.34243   1.000
    C7      C    0.55520   0.64142   0.34243   1.000
    C8      C    0.16952   0.85577   0.68722   1.000
    C9      C    0.66953   0.85577   0.68722   1.000
    C10     C    0.44798   0.84246   0.69753   1.000
    C11     C    0.94799   0.84246   0.69753   1.000
    C12     C    0.14489   0.09576   0.09900   1.000
    C13     C    0.64490   0.09576   0.09900   1.000
    C14     C    0.40005   0.02772   0.75802   1.000
    C15     C    0.90006   0.02772   0.75802   1.000
    C16     C    0.47020   0.24268   0.74658   1.000
    C17     C    0.97020   0.24268   0.74658   1.000
    C18     C    0.44248   0.35857   0.84251   1.000
    C19     C    0.94248   0.35857   0.84251   1.000
    C20     C    0.33051   0.14416   0.18710   1.000
    C21     C    0.83052   0.14416   0.18710   1.000
    C22     C    0.05227   0.15619   0.19676   1.000
    C23     C    0.55227   0.15619   0.19670   1.000
    C24     C    0.39479   0.40039   0.59865   1.000
    C25     C    0.89480   0.40039   0.59865   1.000
    C26     C    0.15021   0.47169   0.25633   1.000
    C27     C    0.65022   0.47169   0.25633   1.000
    C28     C    0.22008   0.25467   0.24615   1.000
    C29     C    0.72008   0.25467   0.24615   1.000
    C30     C    0.19479   0.13916   0.34241   1.000
    C31     C    0.69479   0.13916   0.34241   1.000
    C32     C    0.07905   0.35325   0.68725   1.000
    C33     C    0.57906   0.35325   0.68725   1.000
    C34     C    0.30094   0.34209   0.69711   1.000
    C35     C    0.80094   0.34209   0.69711   1.000
    C36     C    0.10484   0.59938   0.09856   1.000
    C37     C    0.60484   0.59938   0.09856   1.000
    C38     C    0.34889   0.52819   0.75650   1.000
    C39     C    0.84889   0.52819   0.75650   1.000
    C40     C    0.27968   0.74515   0.74634   1.000
    C41     C    0.77969   0.74515   0.74634   1.000
    C42     C    0.30487   0.85992   0.84262   1.000
    C43     C    0.80487   0.85992   0.84262   1.000
    C44     C    0.41875   0.64557   0.18653   1.000
    C45     C    0.91876   0.64557   0.18653   1.000
    C46     C    0.19680   0.65771   0.19721   1.000
    C47     C    0.69680   0.65771   0.19721   1.000
