# CIF file generated by openbabel 2.4.90, see http://openbabel.sf.net
data_I
_chemical_name_common ''
_cell_length_a 22.672
_cell_length_b 22.189
_cell_length_c 29.054
_cell_angle_alpha 90.096
_cell_angle_beta 90.041
_cell_angle_gamma 89.324
_space_group_name_H-M_alt 'P 1'
_space_group_name_Hall 'P 1'
loop_
    _symmetry_equiv_pos_as_xyz
    x,y,z
loop_
    _atom_site_label
    _atom_site_type_symbol
    _atom_site_fract_x
    _atom_site_fract_y
    _atom_site_fract_z
    _atom_site_occupancy
    N0      N    0.45822   0.13104   0.79715   1.000
    N1      N    0.55672   0.82664   0.64664   1.000
    N2      N    0.05672   0.82664   0.64664   1.000
    N3      N    0.44322   0.17295   0.14634   1.000
    N4      N    0.80501   0.67424   0.14626   1.000
    N5      N    0.04160   0.86782   0.29700   1.000
    N6      N    0.69255   0.32536   0.64633   1.000
    N7      N    0.30500   0.67424   0.14626   1.000
    N8      N    0.70823   0.36737   0.29607   1.000
    N9      N    0.54160   0.86782   0.29700   1.000
    N10     N    0.94322   0.17295   0.14634   1.000
    N11     N    0.29133   0.63279   0.79631   1.000
    N12     N    0.19254   0.32536   0.64633   1.000
    N13     N    0.95822   0.13104   0.79715   1.000
    N14     N    0.79134   0.63279   0.79633   1.000
    N15     N    0.20822   0.36737   0.29607   1.000
    Zr16    Zr   0.07164   0.62172   0.22146   1.000
    O17     O    0.06147   0.65271   0.31423   1.000
    O18     O    0.95938   0.64244   0.19129   1.000
    O19     O    0.16833   0.64489   0.19337   1.000
    O20     O    0.12909   0.51380   0.25134   1.000
    O21     O    0.05408   0.72421   0.24972   1.000
    O22     O    0.10958   0.61449   0.12800   1.000
    Zr23    Zr   0.42657   0.37778   0.72169   1.000
    O24     O    0.36971   0.48598   0.75157   1.000
    O25     O    0.38935   0.38526   0.62810   1.000
    O26     O    0.53855   0.35696   0.69155   1.000
    O27     O    0.32959   0.35470   0.69348   1.000
    O28     O    0.44465   0.27501   0.74996   1.000
    O29     O    0.43667   0.34710   0.81437   1.000
    Zr30    Zr   0.32223   0.87917   0.72212   1.000
    O31     O    0.31114   0.84843   0.81459   1.000
    O32     O    0.35995   0.88676   0.62869   1.000
    O33     O    0.21034   0.85853   0.69187   1.000
    O34     O    0.37936   0.98603   0.75233   1.000
    O35     O    0.30461   0.77672   0.74987   1.000
    O36     O    0.41938   0.85586   0.69389   1.000
    Zr37    Zr   0.92657   0.37778   0.72169   1.000
    O38     O    0.93667   0.34710   0.81437   1.000
    O39     O    0.88936   0.38526   0.62810   1.000
    O40     O    0.03855   0.35696   0.69155   1.000
    O41     O    0.82960   0.35470   0.69348   1.000
    O42     O    0.94465   0.27501   0.74996   1.000
    O43     O    0.86972   0.48598   0.75157   1.000
    Zr44    Zr   0.17791   0.11960   0.22167   1.000
    O45     O    0.12086   0.01259   0.25205   1.000
    O46     O    0.13994   0.11179   0.12856   1.000
    O47     O    0.18834   0.15079   0.31422   1.000
    O48     O    0.08073   0.14314   0.19341   1.000
    O49     O    0.28972   0.14071   0.19152   1.000
    O50     O    0.19528   0.22268   0.24952   1.000
    Zr51    Zr   0.67792   0.11960   0.22166   1.000
    O52     O    0.78972   0.14071   0.19152   1.000
    O53     O    0.58073   0.14313   0.19341   1.000
    O54     O    0.63995   0.11179   0.12856   1.000
    O55     O    0.69529   0.22268   0.24952   1.000
    O56     O    0.62087   0.01259   0.25204   1.000
    O57     O    0.68835   0.15079   0.31422   1.000
    Zr58    Zr   0.57169   0.62172   0.22146   1.000
    O59     O    0.66836   0.64489   0.19337   1.000
    O60     O    0.45940   0.64244   0.19129   1.000
    O61     O    0.55411   0.72421   0.24972   1.000
    O62     O    0.62912   0.51380   0.25134   1.000
    O63     O    0.60961   0.61449   0.12800   1.000
    O64     O    0.56150   0.65271   0.31423   1.000
    Zr65    Zr   0.82224   0.87917   0.72212   1.000
    O66     O    0.91938   0.85586   0.69389   1.000
    O67     O    0.80462   0.77672   0.74987   1.000
    O68     O    0.87936   0.98603   0.75233   1.000
    O69     O    0.71035   0.85853   0.69187   1.000
    O70     O    0.81114   0.84843   0.81459   1.000
    O71     O    0.85995   0.88676   0.62869   1.000
loop_
    _geom_bond_atom_site_label_1
    _geom_bond_atom_site_label_2
    _geom_bond_distance
    _geom_bond_site_symmetry_2
    _ccdc_geom_bond_type
    Zr16   O17       2.78958      .   S
    N2     O17      10.39446      .   S
    Zr16   O18       2.72566  1_455   S
    N4     O18       3.79422      .   S
    Zr16   O19       2.40122      .   S
    N7     O19       3.45783      .   S
    Zr16   O20       2.84891      .   S
    N15    O20       3.91633      .   S
    Zr16   O21       2.44476      .   S
    N5     O21       3.47640      .   S
    Zr16   O22       2.85263      .   S
    N11    O22      10.49416  1_556   S
    Zr23   O24       2.84619      .   S
    N11    O24       3.91304      .   S
    Zr23   O25       2.85090      .   S
    N15    O25      10.49053      .   S
    Zr23   O26       2.72037      .   S
    N6     O26       3.78847      .   S
    Zr23   O27       2.40637      .   S
    N12    O27       3.46332      .   S
    Zr23   O28       2.45482      .   S
    N0     O28       3.48867      .   S
    Zr23   O29       2.78727      .   S
    N3     O29      10.39668  1_554   S
    Zr30   O31       2.78529      .   S
    N7     O31      10.39023  1_554   S
    Zr30   O32       2.85248      .   S
    N9     O32      10.48859      .   S
    Zr30   O33       2.72770      .   S
    N2     O33       3.79562      .   S
    Zr30   O34       2.85210      .   S
    N0     O34       3.91966  1_545   S
    Zr30   O35       2.45050      .   S
    N11    O35       3.48557      .   S
    Zr30   O36       2.40120      .   S
    N1     O36       3.45774      .   S
    Zr37   O38       2.78717      .   S
    N10    O38      10.39665  1_554   S
    Zr37   O39       2.85090      .   S
    N8     O39      10.49051      .   S
    Zr37   O40       2.72026  1_655   S
    N12    O40       3.78837      .   S
    Zr37   O41       2.40633      .   S
    N6     O41       3.46329      .   S
    Zr37   O42       2.45482      .   S
    N13    O42       3.48867      .   S
    Zr37   O43       2.84622      .   S
    N14    O43       3.91317      .   S
    Zr44   O45       2.85840      .   S
    N5     O45       3.92538  1_565   S
    Zr44   O46       2.84388      .   S
    N13    O46      10.47773  1_656   S
    Zr44   O47       2.78604      .   S
    N12    O47      10.39246      .   S
    Zr44   O48       2.40282      .   S
    N10    O48       3.46046  1_655   S
    Zr44   O49       2.72845      .   S
    N3     O49       3.79670      .   S
    Zr44   O50       2.46108      .   S
    N15    O50       3.49705      .   S
    Zr51   O52       2.72844      .   S
    N10    O52       3.79670      .   S
    Zr51   O53       2.40296      .   S
    N3     O53       3.46047      .   S
    Zr51   O54       2.84380      .   S
    N0     O54      10.47784  1_556   S
    Zr51   O55       2.46109      .   S
    N8     O55       3.49706      .   S
    Zr51   O56       2.85841      .   S
    N9     O56       3.92540  1_565   S
    Zr51   O57       2.78607      .   S
    N6     O57      10.39250      .   S
    Zr58   O59       2.40075      .   S
    N4     O59       3.45737      .   S
    Zr58   O60       2.72628      .   S
    N7     O60       3.79484      .   S
    Zr58   O61       2.44483      .   S
    N9     O61       3.47643      .   S
    Zr58   O62       2.84868      .   S
    N8     O62       3.91610      .   S
    Zr58   O63       2.85251      .   S
    N14    O63      10.49336  1_556   S
    Zr58   O64       2.78962      .   S
    N1     O64      10.39447      .   S
    Zr65   O66       2.40110      .   S
    N2     O66       3.45759  1_455   S
    Zr65   O67       2.45055      .   S
    N14    O67       3.48575      .   S
    Zr65   O68       2.85210      .   S
    N13    O68       3.91965  1_545   S
    Zr65   O69       2.72770      .   S
    N1     O69       3.79565      .   S
    Zr65   O70       2.78529      .   S
    N4     O70      10.39023  1_554   S
    Zr65   O71       2.85237      .   S
    N5     O71      10.48859  1_455   S
