# CIF file generated by openbabel 2.4.90, see http://openbabel.sf.net
data_I
_chemical_name_common ''
_cell_length_a 15.254
_cell_length_b 13.761
_cell_length_c 22.276
_cell_angle_alpha 89.97
_cell_angle_beta 90.024
_cell_angle_gamma 90.154
_space_group_name_H-M_alt 'P 1'
_space_group_name_Hall 'P 1'
loop_
    _symmetry_equiv_pos_as_xyz
    x,y,z
loop_
    _atom_site_label
    _atom_site_type_symbol
    _atom_site_fract_x
    _atom_site_fract_y
    _atom_site_fract_z
    _atom_site_occupancy
    Cd0     Cd   0.96592   0.83145   0.80083   1.000
    Cd1     Cd   0.03396   0.66917   0.30136   1.000
    Cd2     Cd   0.53395   0.66917   0.30136   1.000
    Cd3     Cd   0.03409   0.16853   0.19918   1.000
    Cd4     Cd   0.53409   0.16852   0.19918   1.000
    Cd5     Cd   0.46601   0.33081   0.69864   1.000
    Cd6     Cd   0.96604   0.33082   0.69860   1.000
    Ni7     Ni   0.21705   0.58110   0.76745   1.000
    Ni8     Ni   0.71706   0.58110   0.76740   1.000
    Ni9     Ni   0.28309   0.91933   0.26956   1.000
    Ni10    Ni   0.78309   0.91933   0.26956   1.000
    Ni11    Ni   0.28294   0.41888   0.23255   1.000
    Ni12    Ni   0.78294   0.41890   0.23254   1.000
    Ni13    Ni   0.21690   0.08065   0.73043   1.000
    Ni14    Ni   0.71692   0.08068   0.73047   1.000
    Cd15    Cd   0.46591   0.83145   0.80083   1.000
