# CIF file generated by openbabel 2.4.90, see http://openbabel.sf.net
data_I
_chemical_name_common ''
_cell_length_a 15.254
_cell_length_b 13.761
_cell_length_c 22.276
_cell_angle_alpha 89.97
_cell_angle_beta 90.024
_cell_angle_gamma 90.154
_space_group_name_H-M_alt 'P 1'
_space_group_name_Hall 'P 1'
loop_
    _symmetry_equiv_pos_as_xyz
    x,y,z
loop_
    _atom_site_label
    _atom_site_type_symbol
    _atom_site_fract_x
    _atom_site_fract_y
    _atom_site_fract_z
    _atom_site_occupancy
    Zr0     Zr   0.46591   0.83145   0.80083   1.000
    Zr1     Zr   0.96592   0.83145   0.80083   1.000
    Zr2     Zr   0.03396   0.66917   0.30136   1.000
    Zr3     Zr   0.53395   0.66917   0.30136   1.000
    Zr4     Zr   0.03409   0.16853   0.19918   1.000
    Zr5     Zr   0.53409   0.16852   0.19918   1.000
    Zr6     Zr   0.46601   0.33081   0.69864   1.000
    Zr7     Zr   0.96604   0.33082   0.69860   1.000
    Zr8     Zr   0.21705   0.58110   0.76745   1.000
    Zr9     Zr   0.71706   0.58110   0.76740   1.000
    Zr10    Zr   0.28309   0.91933   0.26956   1.000
    Zr11    Zr   0.78309   0.91933   0.26956   1.000
    Zr12    Zr   0.28294   0.41888   0.23255   1.000
    Zr13    Zr   0.78294   0.41890   0.23254   1.000
    Zr14    Zr   0.21690   0.08065   0.73043   1.000
    Zr15    Zr   0.71692   0.08068   0.73047   1.000
    N16     N    0.99339   0.68183   0.56234   1.000
    O17     O    0.98655   0.74554   0.65630   1.000
    O18     O    0.01427   0.66341   0.45732   1.000
    N19     N    0.00585   0.81838   0.06221   1.000
    O20     O    0.98548   0.83680   0.95703   1.000
    O21     O    0.01292   0.75513   0.15651   1.000
    N22     N    0.50662   0.31816   0.43766   1.000
    O23     O    0.48573   0.33658   0.54268   1.000
    O24     O    0.51347   0.25444   0.34371   1.000
    N25     N    0.49278   0.18161   0.93779   1.000
    O26     O    0.51383   0.16319   0.04297   1.000
    O27     O    0.48639   0.24486   0.84349   1.000
    N28     N    0.49339   0.68183   0.56233   1.000
    O29     O    0.48654   0.74554   0.65630   1.000
    O30     O    0.51427   0.66341   0.45732   1.000
    N31     N    0.00538   0.31816   0.43766   1.000
    O32     O    0.01284   0.25445   0.34371   1.000
    O33     O    0.98512   0.33658   0.54267   1.000
    N34     N    0.89566   0.31328   0.19203   1.000
    O35     O    0.93704   0.27063   0.19138   1.000
    O36     O    0.86071   0.34615   0.20459   1.000
    N37     N    0.50721   0.81838   0.06220   1.000
    O38     O    0.48616   0.83680   0.95703   1.000
    O39     O    0.51360   0.75513   0.15651   1.000
    N40     N    0.99278   0.18161   0.93779   1.000
    O41     O    0.01383   0.16319   0.04297   1.000
    O42     O    0.98640   0.24486   0.84348   1.000
    N43     N    0.39475   0.52310   0.27645   1.000
    O44     O    0.43633   0.56584   0.28537   1.000
    O45     O    0.36002   0.49083   0.26278   1.000
    N46     N    0.67211   0.81058   0.30979   1.000
    O47     O    0.70657   0.84451   0.29748   1.000
    O48     O    0.63086   0.76849   0.30993   1.000
    N49     N    0.83106   0.97515   0.77005   1.000
    O50     O    0.87170   0.93301   0.78011   1.000
    O51     O    0.79560   0.00774   0.75779   1.000
    N52     N    0.17230   0.31011   0.19177   1.000
    O53     O    0.13107   0.26799   0.19130   1.000
    O54     O    0.20665   0.34402   0.20428   1.000
    N55     N    0.32770   0.68987   0.80823   1.000
    O56     O    0.29335   0.65596   0.79572   1.000
    O57     O    0.36894   0.73198   0.80870   1.000
    N58     N    0.60434   0.68668   0.80799   1.000
    O59     O    0.56297   0.72934   0.80864   1.000
    O60     O    0.63929   0.65382   0.79541   1.000
    N61     N    0.16896   0.02438   0.22979   1.000
    O62     O    0.20442   0.99180   0.24211   1.000
    O63     O    0.12832   0.06673   0.21976   1.000
    N64     N    0.10431   0.68666   0.80801   1.000
    O65     O    0.06295   0.72932   0.80866   1.000
    O66     O    0.13926   0.65381   0.79542   1.000
    N67     N    0.39504   0.02230   0.22464   1.000
    O68     O    0.36027   0.99045   0.23865   1.000
    O69     O    0.43659   0.06497   0.21549   1.000
    N70     N    0.60418   0.18640   0.69007   1.000
    O71     O    0.63915   0.15347   0.70256   1.000
    O72     O    0.56285   0.22900   0.68983   1.000
    N73     N    0.89502   0.02234   0.22465   1.000
    O74     O    0.86026   0.99047   0.23866   1.000
    O75     O    0.93657   0.06500   0.21550   1.000
    N76     N    0.89476   0.52309   0.27641   1.000
    O77     O    0.86003   0.49082   0.26274   1.000
    O78     O    0.93634   0.56583   0.28535   1.000
    N79     N    0.82770   0.68987   0.80820   1.000
    O80     O    0.86894   0.73199   0.80869   1.000
    O81     O    0.79336   0.65596   0.79568   1.000
    N82     N    0.10524   0.47690   0.72356   1.000
    O83     O    0.06366   0.43416   0.71463   1.000
    O84     O    0.13997   0.50917   0.73722   1.000
    N85     N    0.66862   0.52467   0.27109   1.000
    O86     O    0.62801   0.56718   0.28093   1.000
    O87     O    0.70414   0.49184   0.25918   1.000
    N88     N    0.39566   0.31329   0.19199   1.000
    O89     O    0.36071   0.34615   0.20456   1.000
    O90     O    0.43704   0.27063   0.19137   1.000
    N91     N    0.60498   0.97655   0.77530   1.000
    O92     O    0.56344   0.93442   0.78446   1.000
    O93     O    0.63974   0.00845   0.76132   1.000
    N94     N    0.32790   0.18934   0.69016   1.000
    O95     O    0.29343   0.15544   0.70249   1.000
    O96     O    0.36914   0.23144   0.69002   1.000
    N97     N    0.16862   0.52466   0.27105   1.000
    O98     O    0.20413   0.49183   0.25916   1.000
    O99     O    0.12801   0.56718   0.28089   1.000
    N100    N    0.17210   0.81060   0.30980   1.000
    O101    O    0.13085   0.76851   0.30995   1.000
    O102    O    0.20656   0.84452   0.29748   1.000
    N103    N    0.83137   0.47532   0.72890   1.000
    O104    O    0.87198   0.43281   0.71905   1.000
    O105    O    0.79586   0.50815   0.74080   1.000
    N106    N    0.89584   0.81362   0.30995   1.000
    O107    O    0.86087   0.84653   0.29746   1.000
    O108    O    0.93716   0.77102   0.31020   1.000
    N109    N    0.10497   0.97663   0.77541   1.000
    O110    O    0.13974   0.00848   0.76138   1.000
    O111    O    0.06343   0.93449   0.78455   1.000
    N112    N    0.60525   0.47688   0.72356   1.000
    O113    O    0.63998   0.50916   0.73720   1.000
    O114    O    0.56366   0.43415   0.71464   1.000
    N115    N    0.82789   0.18939   0.69022   1.000
    O116    O    0.86914   0.23149   0.69007   1.000
    O117    O    0.79343   0.15548   0.70254   1.000
    N118    N    0.10417   0.18638   0.69005   1.000
    O119    O    0.06285   0.22898   0.68979   1.000
    O120    O    0.13914   0.15346   0.70254   1.000
    N121    N    0.67230   0.31011   0.19178   1.000
    O122    O    0.63106   0.26799   0.19131   1.000
    O123    O    0.70665   0.34402   0.20429   1.000
    N124    N    0.39581   0.81363   0.30995   1.000
    O125    O    0.43714   0.77103   0.31019   1.000
    O126    O    0.36084   0.84654   0.29747   1.000
    N127    N    0.66896   0.02437   0.22981   1.000
    O128    O    0.70442   0.99180   0.24212   1.000
    O129    O    0.62831   0.06672   0.21978   1.000
    N130    N    0.33135   0.47534   0.72888   1.000
    O131    O    0.29584   0.50816   0.74079   1.000
    O132    O    0.37195   0.43282   0.71905   1.000
    N133    N    0.33103   0.97517   0.77015   1.000
    O134    O    0.29557   0.00775   0.75786   1.000
    O135    O    0.37168   0.93303   0.78018   1.000
loop_
    _geom_bond_atom_site_label_1
    _geom_bond_atom_site_label_2
    _geom_bond_distance
    _geom_bond_site_symmetry_2
    _ccdc_geom_bond_type
    N16    O17       2.27226      .   S
    Zr1    O17       3.44520      .   S
    N16    O18       2.37482  1_655   S
    Zr2    O18       3.48810      .   S
    N19    O20       2.37677  1_454   S
    Zr1    O20       3.49306      .   S
    N19    O21       2.27608      .   S
    Zr2    O21       3.45117      .   S
    N22    O23       2.37488      .   S
    Zr6    O23       3.48818      .   S
    N22    O24       2.27215      .   S
    Zr5    O24       3.44510      .   S
    N25    O26       2.37826  1_556   S
    Zr5    O26       3.49409      .   S
    N25    O27       2.27561      .   S
    Zr6    O27       3.45020      .   S
    N28    O29       2.27228      .   S
    Zr0    O29       3.44520      .   S
    N28    O30       2.37480      .   S
    Zr3    O30       3.48808      .   S
    N31    O32       2.27263      .   S
    Zr4    O32       3.44599      .   S
    N31    O33       2.37336  1_455   S
    Zr7    O33       3.48665      .   S
    N34    O35       0.86318      .   S
    Zr4    O35       2.05102  1_455   S
    N34    O36       0.75410      .   S
    Zr13   O36       1.67469      .   S
    N37    O38       2.37810  1_554   S
    Zr0    O38       3.49393      .   S
    N37    O39       2.27570      .   S
    Zr3    O39       3.45019      .   S
    N40    O41       2.37827  1_656   S
    Zr4    O41       3.49409      .   S
    N40    O42       2.27580      .   S
    Zr7    O42       3.45082      .   S
    N43    O44       0.88636      .   S
    Zr3    O44       2.08692      .   S
    N43    O45       0.75455      .   S
    Zr12   O45       1.67627      .   S
    N46    O47       0.75372      .   S
    Zr11   O47       1.67418      .   S
    N46    O48       0.85413      .   S
    Zr3    O48       2.01957      .   S
    N49    O50       0.87889      .   S
    Zr1    O50       2.05938      .   S
    N49    O51       0.75465  1_565   S
    Zr15   O51       1.68035      .   S
    N52    O53       0.85425      .   S
    Zr4    O53       2.02032      .   S
    N52    O54       0.75408      .   S
    Zr12   O54       1.67503      .   S
    N55    O56       0.75413      .   S
    Zr8    O56       1.67521      .   S
    N55    O57       0.85418      .   S
    Zr0    O57       2.02017      .   S
    N58    O59       0.86323      .   S
    Zr0    O59       2.05119      .   S
    N58    O60       0.75420      .   S
    Zr9    O60       1.67501      .   S
    N61    O62       0.75487  1_545   S
    Zr10   O62       1.67746      .   S
    N61    O63       0.88068      .   S
    Zr4    O63       2.06115      .   S
    N64    O65       0.86310      .   S
    Zr1    O65       2.05114  1_655   S
    N64    O66       0.75415      .   S
    Zr8    O66       1.67484      .   S
    N67    O68       0.75475  1_545   S
    Zr10   O68       1.67680      .   S
    N67    O69       0.88650      .   S
    Zr5    O69       2.08887      .   S
    N70    O71       0.75384      .   S
    Zr15   O71       1.67399      .   S
    N70    O72       0.86203      .   S
    Zr6    O72       2.04824      .   S
    N73    O74       0.75473  1_545   S
    Zr11   O74       1.67678      .   S
    N73    O75       0.88646      .   S
    Zr4    O75       2.08877  1_455   S
    N76    O77       0.75455      .   S
    Zr13   O77       1.67588      .   S
    N76    O78       0.88648      .   S
    Zr2    O78       2.08699  1_455   S
    N79    O80       0.85423      .   S
    Zr1    O80       2.02031      .   S
    N79    O81       0.75416      .   S
    Zr9    O81       1.67509      .   S
    N82    O83       0.88642      .   S
    Zr7    O83       2.08706  1_655   S
    N82    O84       0.75449      .   S
    Zr8    O84       1.67611      .   S
    N85    O86       0.88098      .   S
    Zr3    O86       2.06097      .   S
    N85    O87       0.75471      .   S
    Zr13   O87       1.67701      .   S
    N88    O89       0.75410      .   S
    Zr12   O89       1.67496      .   S
    N88    O90       0.86324      .   S
    Zr5    O90       2.05114      .   S
    N91    O92       0.88172      .   S
    Zr0    O92       2.08396      .   S
    N91    O93       0.75464  1_565   S
    Zr15   O93       1.68519      .   S
    N94    O95       0.75375      .   S
    Zr14   O95       1.67420      .   S
    N94    O96       0.85409      .   S
    Zr6    O96       2.01975      .   S
    N97    O98       0.75455      .   S
    Zr12   O98       1.67683      .   S
    N97    O99       0.88096      .   S
    Zr2    O99       2.06113      .   S
    N100   O101      0.85410      .   S
    Zr2    O101      2.01966      .   S
    N100   O102      0.75376      .   S
    Zr10   O102      1.67420      .   S
    N103   O104      0.88101      .   S
    Zr7    O104      2.06110      .   S
    N103   O105      0.75459      .   S
    Zr9    O105      1.67665      .   S
    N106   O107      0.75382      .   S
    Zr11   O107      1.67392      .   S
    N106   O108      0.86190      .   S
    Zr2    O108      2.04826  1_455   S
    N109   O110      0.75478  1_565   S
    Zr14   O110      1.68549      .   S
    N109   O111      0.88166      .   S
    Zr1    O111      2.08399  1_655   S
    N112   O113      0.75445      .   S
    Zr9    O113      1.67594      .   S
    N112   O114      0.88648      .   S
    Zr6    O114      2.08716      .   S
    N115   O116      0.85417      .   S
    Zr7    O116      2.01952      .   S
    N115   O117      0.75367      .   S
    Zr15   O117      1.67397      .   S
    N118   O119      0.86192      .   S
    Zr7    O119      2.04819  1_655   S
    N118   O120      0.75384      .   S
    Zr14   O120      1.67394      .   S
    N121   O122      0.85422      .   S
    Zr5    O122      2.02029      .   S
    N121   O123      0.75407      .   S
    Zr13   O123      1.67504      .   S
    N124   O125      0.86200      .   S
    Zr3    O125      2.04841      .   S
    N124   O126      0.75370      .   S
    Zr10   O126      1.67376      .   S
    N127   O128      0.75484  1_545   S
    Zr11   O128      1.67738      .   S
    N127   O129      0.88070      .   S
    Zr5    O129      2.06111      .   S
    N130   O131      0.75467      .   S
    Zr8    O131      1.67692      .   S
    N130   O132      0.88095      .   S
    Zr6    O132      2.06095      .   S
    N133   O134      0.75468  1_565   S
    Zr14   O134      1.68072      .   S
    N133   O135      0.87879      .   S
    Zr0    O135      2.05946      .   S
