# CIF file generated by openbabel 2.4.90, see http://openbabel.sf.net
data_I
_chemical_name_common ''
_cell_length_a 11.628
_cell_length_b 13.002
_cell_length_c 13.003
_cell_angle_alpha 95.91
_cell_angle_beta 106.121
_cell_angle_gamma 106.096
_space_group_name_H-M_alt 'P 1'
_space_group_name_Hall 'P 1'
loop_
    _symmetry_equiv_pos_as_xyz
    x,y,z
loop_
    _atom_site_label
    _atom_site_type_symbol
    _atom_site_fract_x
    _atom_site_fract_y
    _atom_site_fract_z
    _atom_site_occupancy
    H0      H    0.90885   0.30993   0.16751   1.000
    H1      H    0.00000   0.34802   0.36916   1.000
    H2      H    0.97823   0.32539   0.55065   1.000
    H3      H    0.59037   0.12574   0.39688   1.000
    H4      H    0.49951   0.08166   0.19436   1.000
    H5      H    0.52327   0.10413   0.01344   1.000
    H6      H    0.42159   0.12209   0.82974   1.000
    H7      H    0.18628   0.05985   0.76140   1.000
    H8      H    0.21007   0.04623   0.43442   1.000
    H9      H    0.44219   0.10604   0.51664   1.000
    H10     H    0.99403   0.00000   0.61735   1.000
    H11     H    0.59123   0.83257   0.68949   1.000
    H12     H    0.49817   0.63084   0.65032   1.000
    H13     H    0.52228   0.44933   0.67282   1.000
    H14     H    0.90949   0.60308   0.87418   1.000
    H15     H    0.00000   0.80555   0.91909   1.000
    H16     H    0.97616   0.98656   0.89680   1.000
    H17     H    0.07831   0.17013   0.87436   1.000
    H18     H    0.31361   0.23840   0.93579   1.000
    H19     H    0.28991   0.56567   0.95650   1.000
    H20     H    0.05785   0.48350   0.89700   1.000
    H21     H    0.50585   0.38255   0.98939   1.000
    H22     H    0.09116   0.68995   0.83254   1.000
    H23     H    0.99780   0.65161   0.63087   1.000
    H24     H    0.02183   0.67420   0.44936   1.000
    H25     H    0.40956   0.87419   0.60310   1.000
    H26     H    0.50039   0.91840   0.80563   1.000
    H27     H    0.47662   0.89604   0.98657   1.000
    H28     H    0.57837   0.87799   0.17028   1.000
    H29     H    0.81367   0.94010   0.23860   1.000
    H30     H    0.78988   0.95338   0.56558   1.000
    H31     H    0.55777   0.89370   0.48337   1.000
    H32     H    0.00000   0.99217   0.38265   1.000
    H33     H    0.40873   0.16743   0.31057   1.000
    H34     H    0.50182   0.36915   0.34958   1.000
    H35     H    0.47772   0.55065   0.32700   1.000
    H36     H    0.09046   0.39688   0.12577   1.000
    H37     H    0.99991   0.19440   0.08098   1.000
    H38     H    0.02375   0.01341   0.10333   1.000
    H39     H    0.92163   0.82983   0.12569   1.000
    H40     H    0.68634   0.76155   0.06420   1.000
    H41     H    0.71004   0.43428   0.04334   1.000
    H42     H    0.94211   0.51646   0.10292   1.000
    H43     H    0.49409   0.61740   0.00000   1.000
    C44     C    0.71814   0.20953   0.07944   1.000
    C45     C    0.81939   0.26082   0.17368   1.000
    C46     C    0.80877   0.25010   0.27799   1.000
    C47     C    0.91211   0.29993   0.37542   1.000
    C48     C    0.89924   0.28770   0.47580   1.000
    C49     C    0.78145   0.22590   0.48431   1.000
    C50     C    0.67949   0.17535   0.39039   1.000
    C51     C    0.69040   0.18542   0.28600   1.000
    C52     C    0.58812   0.13313   0.18832   1.000
    C53     C    0.60133   0.14520   0.08799   1.000
    C54     C    0.37025   0.10416   0.74273   1.000
    C55     C    0.23937   0.06992   0.70390   1.000
    C56     C    0.17489   0.04766   0.59104   1.000
    C57     C    0.25129   0.06172   0.52286   1.000
    C58     C    0.38173   0.09550   0.56799   1.000
    C59     C    0.03752   0.01260   0.55272   1.000
    C60     C    0.78164   0.92058   0.79069   1.000
    C61     C    0.68058   0.82637   0.73880   1.000
    C62     C    0.69129   0.72202   0.74930   1.000
    C63     C    0.58818   0.62458   0.69884   1.000
    C64     C    0.60109   0.52410   0.71097   1.000
    C65     C    0.71869   0.51569   0.77330   1.000
    C66     C    0.82047   0.60959   0.82430   1.000
    C67     C    0.80948   0.71395   0.81446   1.000
    C68     C    0.91157   0.81165   0.86729   1.000
    C69     C    0.89830   0.91200   0.85530   1.000
    C70     C    0.12968   0.25719   0.89368   1.000
    C71     C    0.26055   0.29600   0.92755   1.000
    C72     C    0.32504   0.40893   0.95160   1.000
    C73     C    0.24866   0.47719   0.93958   1.000
    C74     C    0.11823   0.43206   0.90600   1.000
    C75     C    0.46242   0.44724   0.98629   1.000
    C76     C    0.28181   0.79050   0.92050   1.000
    C77     C    0.18059   0.73909   0.82630   1.000
    C78     C    0.19122   0.74976   0.72203   1.000
    C79     C    0.08794   0.69976   0.62460   1.000
    C80     C    0.10079   0.71198   0.52413   1.000
    C81     C    0.21853   0.77390   0.51570   1.000
    C82     C    0.32047   0.82452   0.60962   1.000
    C83     C    0.30957   0.81446   0.71397   1.000
    C84     C    0.41180   0.86690   0.81169   1.000
    C85     C    0.39859   0.85488   0.91203   1.000
    C86     C    0.62971   0.89582   0.25720   1.000
    C87     C    0.76058   0.92999   0.29612   1.000
    C88     C    0.82505   0.95213   0.40890   1.000
    C89     C    0.74866   0.93801   0.47715   1.000
    C90     C    0.61822   0.90429   0.43202   1.000
    C91     C    0.96243   0.98716   0.44729   1.000
    C92     C    0.21830   0.07941   0.20942   1.000
    C93     C    0.31936   0.17363   0.26122   1.000
    C94     C    0.30869   0.27797   0.25065   1.000
    C95     C    0.41179   0.37540   0.30110   1.000
    C96     C    0.39889   0.47588   0.28889   1.000
    C97     C    0.28128   0.48429   0.22659   1.000
    C98     C    0.17950   0.39038   0.17561   1.000
    C99     C    0.19046   0.28602   0.18557   1.000
    C100    C    0.08838   0.18832   0.13274   1.000
    C101    C    0.10163   0.08797   0.14474   1.000
    C102    C    0.87027   0.74277   0.10630   1.000
    C103    C    0.73940   0.70395   0.07242   1.000
    C104    C    0.67491   0.59102   0.04832   1.000
    C105    C    0.75129   0.52277   0.06031   1.000
    C106    C    0.88172   0.56790   0.09392   1.000
    C107    C    0.53753   0.55271   0.01361   1.000
    N108    N    0.44271   0.11723   0.67687   1.000
    N109    N    0.05724   0.32313   0.88265   1.000
    N110    N    0.55724   0.88268   0.32315   1.000
    N111    N    0.94271   0.67683   0.11734   1.000
loop_
    _geom_bond_atom_site_label_1
    _geom_bond_atom_site_label_2
    _geom_bond_distance
    _geom_bond_site_symmetry_2
    _ccdc_geom_bond_type
    H43    C107      1.10020      .   S
    H5     C53       1.08844      .   S
    C107   C104      1.45454      .   S
    C107   C75       1.35380  1_554   S
    H41    C105      1.08875      .   S
    C104   C105      1.41042      .   S
    C104   C103      1.40738      .   S
    C105   C106      1.38605      .   S
    H40    C103      1.09042      .   S
    C103   C102      1.38588      .   S
    C44    C53       1.42471      .   S
    C44    C45       1.38842      .   S
    H37    C100      1.09049  1_655   S
    C53    C52       1.37487      .   S
    C106   H42       1.08850      .   S
    C106   N111      1.35504      .   S
    H38    C101      1.08846      .   S
    C102   N111      1.35045      .   S
    C102   H39       1.08824      .   S
    H36    C98       1.08911      .   S
    C100   C101      1.37483      .   S
    C100   C99       1.42336      .   S
    C101   C92       1.42465      .   S
    H0     C45       1.08851      .   S
    H28    C86       1.08726      .   S
    C45    C46       1.41307      .   S
    C98    C99       1.41314      .   S
    C98    C97       1.38833      .   S
    C99    C94       1.43844      .   S
    C52    H4        1.09047      .   S
    C52    C51       1.42298      .   S
    C92    C93       1.38840      .   S
    C97    C96       1.42286      .   S
    H29    C87       1.09056      .   S
    C94    C93       1.41316      .   S
    C94    C95       1.42215      .   S
    C86    C87       1.38587      .   S
    C86    N110      1.35135      .   S
    C93    H33       1.08852      .   S
    C46    C51       1.43818      .   S
    C46    C47       1.42215      .   S
    C51    C50       1.41377      .   S
    C96    C95       1.37559      .   S
    C96    H35       1.08875      .   S
    C87    C88       1.40653      .   S
    C95    H34       1.09147      .   S
    N110   C90       1.35496      .   S
    H1     C47       1.06979  1_455   S
    C47    C48       1.37452      .   S
    H32    C91       1.04927  1_455   S
    C50    H3        1.08916      .   S
    C50    C49       1.38840      .   S
    C88    C91       1.45439      .   S
    C88    C89       1.41117      .   S
    C90    C89       1.38601      .   S
    C90    H31       1.08851      .   S
    H8     C57       1.08879      .   S
    C91    C59       1.35384  1_665   S
    H24    C80       1.08877      .   S
    C48    C49       1.42341      .   S
    C48    H2        1.08940      .   S
    C89    H30       1.08874      .   S
    C81    C80       1.42298      .   S
    C81    C82       1.38839      .   S
    H9     C58       1.08849      .   S
    C57    C58       1.38600      .   S
    C57    C56       1.41043      .   S
    C80    C79       1.37561      .   S
    C59    C56       1.45438      .   S
    C59    H10       1.09870  1_455   S
    C58    N108      1.35501      .   S
    C56    C55       1.40735      .   S
    H25    C82       1.08927      .   S
    C82    C83       1.41319      .   S
    C79    H23       1.09147  1_455   S
    C79    C78       1.42212      .   S
    H12    C63       1.09144      .   S
    H13    C64       1.08873      .   S
    N108   C54       1.35038      .   S
    H11    C61       1.08828      .   S
    C63    C64       1.37559      .   S
    C63    C62       1.42216      .   S
    C55    C54       1.38584      .   S
    C55    H7        1.09032      .   S
    C64    C65       1.42286      .   S
    C83    C78       1.43839      .   S
    C83    C84       1.42332      .   S
    C78    C77       1.41245      .   S
    C61    C62       1.41328      .   S
    C61    C60       1.38851      .   S
    C54    H6        1.08821      .   S
    C62    C67       1.43844      .   S
    C65    C66       1.38828      .   S
    C60    C69       1.42427      .   S
    H26    C84       1.09050      .   S
    C84    C85       1.37489      .   S
    C67    C66       1.41306      .   S
    C67    C68       1.42335      .   S
    C66    H14       1.08920      .   S
    C77    H22       1.08879      .   S
    C77    C76       1.38814      .   S
    C69    C68       1.37504      .   S
    C69    H16       1.08856      .   S
    C68    H15       1.09038  1_655   S
    H17    C70       1.08827      .   S
    N109   C70       1.35044      .   S
    N109   C74       1.35506      .   S
    C70    C71       1.38586      .   S
    H20    C74       1.08850      .   S
    C74    C73       1.38605      .   S
    C85    C76       1.42423      .   S
    C85    H27       1.08840      .   S
    C71    H18       1.09040      .   S
    C71    C72       1.40738      .   S
    C73    C72       1.41043      .   S
    C73    H19       1.08876      .   S
    C72    C75       1.45454      .   S
    C75    H21       1.09335      .   S
