# CIF file generated by openbabel 2.4.90, see http://openbabel.sf.net
data_I
_chemical_name_common ''
_cell_length_a 11.628
_cell_length_b 13.002
_cell_length_c 13.003
_cell_angle_alpha 95.91
_cell_angle_beta 106.121
_cell_angle_gamma 106.096
_space_group_name_H-M_alt 'P 1'
_space_group_name_Hall 'P 1'
loop_
    _symmetry_equiv_pos_as_xyz
    x,y,z
loop_
    _atom_site_label
    _atom_site_type_symbol
    _atom_site_fract_x
    _atom_site_fract_y
    _atom_site_fract_z
    _atom_site_occupancy
    Co0     Co   0.85882   0.25676   0.82010   1.000
    Co1     Co   0.35885   0.82004   0.25670   1.000
    Co2     Co   0.14114   0.74324   0.17992   1.000
    Co3     Co   0.64111   0.17996   0.74326   1.000
    C4      C    0.73162   0.21815   0.97016   1.000
    C5      C    0.76866   0.21782   0.59397   1.000
    C6      C    0.76819   0.02984   0.78217   1.000
    C7      C    0.73142   0.40605   0.78167   1.000
    C8      C    0.26832   0.78190   0.02980   1.000
    C9      C    0.23131   0.78206   0.40605   1.000
    C10     C    0.23176   0.97015   0.21794   1.000
    C11     C    0.26855   0.59393   0.21826   1.000
    O12     O    0.63050   0.18177   0.88757   1.000
    O13     O    0.84249   0.25961   0.96376   1.000
    O14     O    0.65752   0.17802   0.60061   1.000
    O15     O    0.86998   0.25315   0.67605   1.000
    O16     O    0.86932   0.11241   0.81852   1.000
    O17     O    0.65732   0.03629   0.74072   1.000
    O18     O    0.84253   0.39940   0.82170   1.000
    O19     O    0.63005   0.32402   0.74657   1.000
    O20     O    0.36944   0.81828   0.11246   1.000
    O21     O    0.15745   0.74044   0.03620   1.000
    O22     O    0.34244   0.82190   0.39941   1.000
    O23     O    0.12999   0.74679   0.32397   1.000
    O24     O    0.13062   0.88759   0.18155   1.000
    O25     O    0.34263   0.96371   0.25940   1.000
    O26     O    0.15744   0.60060   0.17824   1.000
    O27     O    0.36991   0.67597   0.25300   1.000
    Ts28    Ts   0.92496   0.27888   0.84095   1.000
    Ts29    Ts   0.42498   0.84092   0.27885   1.000
    Ts30    Ts   0.07500   0.72111   0.15906   1.000
    Ts31    Ts   0.57497   0.15905   0.72113   1.000
    Og32    Og   0.72713   0.21528   0.00659   1.000
    Og33    Og   0.77292   0.22051   0.55742   1.000
    Og34    Og   0.77267   0.99342   0.78501   1.000
    Og35    Og   0.72717   0.44259   0.77888   1.000
    Og36    Og   0.27282   0.78477   0.99337   1.000
    Og37    Og   0.22705   0.77934   0.44260   1.000
    Og38    Og   0.22728   0.00657   0.21510   1.000
    Og39    Og   0.27280   0.55739   0.22104   1.000
loop_
    _geom_bond_atom_site_label_1
    _geom_bond_atom_site_label_2
    _geom_bond_distance
    _geom_bond_site_symmetry_2
    _ccdc_geom_bond_type
    C8     O21       1.28180      .   S
    C8     O20       1.28322      .   S
    O21    Co2       1.92777      .   S
    O20    Co1       1.91163      .   S
    O26    Co2       1.91447      .   S
    O26    C11       1.28276      .   S
    Co2    O24       1.91265      .   S
    Co2    O23       1.90992      .   S
    O24    C10       1.28281      .   S
    C10    O25       1.28172      .   S
    C11    O27       1.28015      .   S
    O27    Co1       1.90956      .   S
    Co1    O25       1.92661      .   S
    Co1    O22       1.91583      .   S
    O23    C9        1.28018      .   S
    O22    C9        1.28283      .   S
    C5     O14       1.28279      .   S
    C5     O15       1.28015      .   S
    O14    Co3       1.91503      .   S
    O15    Co0       1.90990      .   S
    O17    Co3       1.92666      .   S
    O17    C6        1.28167      .   S
    Co3    O19       1.90976      .   S
    Co3    O12       1.91257      .   S
    O19    C7        1.28023      .   S
    C7     O18       1.28273      .   S
    C6     O16       1.28279      .   S
    O16    Co0       1.91268      .   S
    Co0    O18       1.91449      .   S
    Co0    O13       1.92704      .   S
    O12    C4        1.28275      .   S
    O13    C4        1.28176      .   S
    Co3    Co0       2.32214      .   S
    Co1    Co2       2.32209      .   S
    Co0    Ts28      0.70230      .   S
    Co1    Ts29      0.70222      .   S
    Co2    Ts30      0.70234      .   S
    Co3    Ts31      0.70223      .   S
    C4     Og32      0.49476  1_556   S
    C5     Og33      0.49513      .   S
    C6     Og34      0.49454  1_545   S
    C7     Og35      0.49507      .   S
    C8     Og36      0.49484  1_554   S
    C9     Og37      0.49511      .   S
    C10    Og38      0.49454  1_565   S
    C11    Og39      0.49508      .   S
