# CIF file generated by openbabel 2.4.90, see http://openbabel.sf.net
data_I
_chemical_name_common ''
_cell_length_a 11.628
_cell_length_b 13.002
_cell_length_c 13.003
_cell_angle_alpha 95.91
_cell_angle_beta 106.121
_cell_angle_gamma 106.096
_space_group_name_H-M_alt 'P 1'
_space_group_name_Hall 'P 1'
loop_
    _symmetry_equiv_pos_as_xyz
    x,y,z
loop_
    _atom_site_label
    _atom_site_type_symbol
    _atom_site_fract_x
    _atom_site_fract_y
    _atom_site_fract_z
    _atom_site_occupancy
    C0      C    0.73162   0.21815   0.97016   1.000
    C1      C    0.76866   0.21782   0.59397   1.000
    C2      C    0.76819   0.02984   0.78217   1.000
    C3      C    0.73142   0.40605   0.78167   1.000
    C4      C    0.26832   0.78190   0.02980   1.000
    C5      C    0.23131   0.78206   0.40605   1.000
    C6      C    0.23176   0.97015   0.21794   1.000
    C7      C    0.26855   0.59393   0.21826   1.000
