# CIF file generated by openbabel 2.4.90, see http://openbabel.sf.net
data_I
_chemical_name_common ''
_cell_length_a 11.628
_cell_length_b 13.002
_cell_length_c 13.003
_cell_angle_alpha 95.91
_cell_angle_beta 106.121
_cell_angle_gamma 106.096
_space_group_name_H-M_alt 'P 1'
_space_group_name_Hall 'P 1'
loop_
    _symmetry_equiv_pos_as_xyz
    x,y,z
loop_
    _atom_site_label
    _atom_site_type_symbol
    _atom_site_fract_x
    _atom_site_fract_y
    _atom_site_fract_z
    _atom_site_occupancy
    C0      C    0.64111   0.17996   0.74326   1.000
    C1      C    0.85882   0.25676   0.82010   1.000
    C2      C    0.35885   0.82004   0.25670   1.000
    C3      C    0.14114   0.74324   0.17992   1.000
    C4      C    0.90885   0.30993   0.16751   1.000
    C5      C    0.00000   0.34802   0.36916   1.000
    C6      C    0.97823   0.32539   0.55065   1.000
    C7      C    0.59037   0.12574   0.39688   1.000
    C8      C    0.49951   0.08166   0.19436   1.000
    C9      C    0.52327   0.10413   0.01344   1.000
    C10     C    0.42159   0.12209   0.82974   1.000
    C11     C    0.18628   0.05985   0.76140   1.000
    C12     C    0.21007   0.04623   0.43442   1.000
    C13     C    0.44219   0.10604   0.51664   1.000
    C14     C    0.99403   0.00000   0.61735   1.000
    C15     C    0.59123   0.83257   0.68949   1.000
    C16     C    0.49817   0.63084   0.65032   1.000
    C17     C    0.52228   0.44933   0.67282   1.000
    C18     C    0.90949   0.60308   0.87418   1.000
    C19     C    0.00000   0.80555   0.91909   1.000
    C20     C    0.97616   0.98656   0.89680   1.000
    C21     C    0.07831   0.17013   0.87436   1.000
    C22     C    0.31361   0.23840   0.93579   1.000
    C23     C    0.28991   0.56567   0.95650   1.000
    C24     C    0.05785   0.48350   0.89700   1.000
    C25     C    0.50585   0.38255   0.98939   1.000
    C26     C    0.09116   0.68995   0.83254   1.000
    C27     C    0.99780   0.65161   0.63087   1.000
    C28     C    0.02183   0.67420   0.44936   1.000
    C29     C    0.40956   0.87419   0.60310   1.000
    C30     C    0.50039   0.91840   0.80563   1.000
    C31     C    0.47662   0.89604   0.98657   1.000
    C32     C    0.57837   0.87799   0.17028   1.000
    C33     C    0.81367   0.94010   0.23860   1.000
    C34     C    0.78988   0.95338   0.56558   1.000
    C35     C    0.55777   0.89370   0.48337   1.000
    C36     C    0.00000   0.99217   0.38265   1.000
    C37     C    0.40873   0.16743   0.31057   1.000
    C38     C    0.50182   0.36915   0.34958   1.000
    C39     C    0.47772   0.55065   0.32700   1.000
    C40     C    0.09046   0.39688   0.12577   1.000
    C41     C    0.99991   0.19440   0.08098   1.000
    C42     C    0.02375   0.01341   0.10333   1.000
    C43     C    0.92163   0.82983   0.12569   1.000
    C44     C    0.68634   0.76155   0.06420   1.000
    C45     C    0.71004   0.43428   0.04334   1.000
    C46     C    0.94211   0.51646   0.10292   1.000
    C47     C    0.49409   0.61740   0.00000   1.000
    C48     C    0.71814   0.20953   0.07944   1.000
    C49     C    0.81939   0.26082   0.17368   1.000
    C50     C    0.80877   0.25010   0.27799   1.000
    C51     C    0.91211   0.29993   0.37542   1.000
    C52     C    0.89924   0.28770   0.47580   1.000
    C53     C    0.78145   0.22590   0.48431   1.000
    C54     C    0.67949   0.17535   0.39039   1.000
    C55     C    0.69040   0.18542   0.28600   1.000
    C56     C    0.58812   0.13313   0.18832   1.000
    C57     C    0.60133   0.14520   0.08799   1.000
    C58     C    0.73162   0.21815   0.97016   1.000
    C59     C    0.76866   0.21782   0.59397   1.000
    C60     C    0.37025   0.10416   0.74273   1.000
    C61     C    0.23937   0.06992   0.70390   1.000
    C62     C    0.17489   0.04766   0.59104   1.000
    C63     C    0.25129   0.06172   0.52286   1.000
    C64     C    0.38173   0.09550   0.56799   1.000
    C65     C    0.03752   0.01260   0.55272   1.000
    C66     C    0.78164   0.92058   0.79069   1.000
    C67     C    0.68058   0.82637   0.73880   1.000
    C68     C    0.69129   0.72202   0.74930   1.000
    C69     C    0.58818   0.62458   0.69884   1.000
    C70     C    0.60109   0.52410   0.71097   1.000
    C71     C    0.71869   0.51569   0.77330   1.000
    C72     C    0.82047   0.60959   0.82430   1.000
    C73     C    0.80948   0.71395   0.81446   1.000
    C74     C    0.91157   0.81165   0.86729   1.000
    C75     C    0.89830   0.91200   0.85530   1.000
    C76     C    0.76819   0.02984   0.78217   1.000
    C77     C    0.73142   0.40605   0.78167   1.000
    C78     C    0.12968   0.25719   0.89368   1.000
    C79     C    0.26055   0.29600   0.92755   1.000
    C80     C    0.32504   0.40893   0.95160   1.000
    C81     C    0.24866   0.47719   0.93958   1.000
    C82     C    0.11823   0.43206   0.90600   1.000
    C83     C    0.46242   0.44724   0.98629   1.000
    C84     C    0.28181   0.79050   0.92050   1.000
    C85     C    0.18059   0.73909   0.82630   1.000
    C86     C    0.19122   0.74976   0.72203   1.000
    C87     C    0.08794   0.69976   0.62460   1.000
    C88     C    0.10079   0.71198   0.52413   1.000
    C89     C    0.21853   0.77390   0.51570   1.000
    C90     C    0.32047   0.82452   0.60962   1.000
    C91     C    0.30957   0.81446   0.71397   1.000
    C92     C    0.41180   0.86690   0.81169   1.000
    C93     C    0.39859   0.85488   0.91203   1.000
    C94     C    0.26832   0.78190   0.02980   1.000
    C95     C    0.23131   0.78206   0.40605   1.000
    C96     C    0.62971   0.89582   0.25720   1.000
    C97     C    0.76058   0.92999   0.29612   1.000
    C98     C    0.82505   0.95213   0.40890   1.000
    C99     C    0.74866   0.93801   0.47715   1.000
    C100    C    0.61822   0.90429   0.43202   1.000
    C101    C    0.96243   0.98716   0.44729   1.000
    C102    C    0.21830   0.07941   0.20942   1.000
    C103    C    0.31936   0.17363   0.26122   1.000
    C104    C    0.30869   0.27797   0.25065   1.000
    C105    C    0.41179   0.37540   0.30110   1.000
    C106    C    0.39889   0.47588   0.28889   1.000
    C107    C    0.28128   0.48429   0.22659   1.000
    C108    C    0.17950   0.39038   0.17561   1.000
    C109    C    0.19046   0.28602   0.18557   1.000
    C110    C    0.08838   0.18832   0.13274   1.000
    C111    C    0.10163   0.08797   0.14474   1.000
    C112    C    0.23176   0.97015   0.21794   1.000
    C113    C    0.26855   0.59393   0.21826   1.000
    C114    C    0.87027   0.74277   0.10630   1.000
    C115    C    0.73940   0.70395   0.07242   1.000
    C116    C    0.67491   0.59102   0.04832   1.000
    C117    C    0.75129   0.52277   0.06031   1.000
    C118    C    0.88172   0.56790   0.09392   1.000
    C119    C    0.53753   0.55271   0.01361   1.000
    C120    C    0.44271   0.11723   0.67687   1.000
    C121    C    0.05724   0.32313   0.88265   1.000
    C122    C    0.55724   0.88268   0.32315   1.000
    C123    C    0.94271   0.67683   0.11734   1.000
    C124    C    0.63050   0.18177   0.88757   1.000
    C125    C    0.84249   0.25961   0.96376   1.000
    C126    C    0.65752   0.17802   0.60061   1.000
    C127    C    0.86998   0.25315   0.67605   1.000
    C128    C    0.86932   0.11241   0.81852   1.000
    C129    C    0.65732   0.03629   0.74072   1.000
    C130    C    0.84253   0.39940   0.82170   1.000
    C131    C    0.63005   0.32402   0.74657   1.000
    C132    C    0.36944   0.81828   0.11246   1.000
    C133    C    0.15745   0.74044   0.03620   1.000
    C134    C    0.34244   0.82190   0.39941   1.000
    C135    C    0.12999   0.74679   0.32397   1.000
    C136    C    0.13062   0.88759   0.18155   1.000
    C137    C    0.34263   0.96371   0.25940   1.000
    C138    C    0.15744   0.60060   0.17824   1.000
    C139    C    0.36991   0.67597   0.25300   1.000
    O140    O    0.51581   0.58505   0.00680   1.000
    O141    O    0.56230   0.12467   0.05071   1.000
    O142    O    0.60622   0.57186   0.03096   1.000
    O143    O    0.49997   0.49997   0.99995   1.000
    O144    O    0.21289   0.76117   0.03300   1.000
    O145    O    0.31888   0.80009   0.07113   1.000
    O146    O    0.27507   0.78620   0.97515   1.000
    O147    O    0.14930   0.74184   0.10806   1.000
    O148    O    0.73066   0.47852   0.05182   1.000
    O149    O    0.71310   0.55689   0.05432   1.000
    O150    O    0.70715   0.64749   0.06037   1.000
    O151    O    0.81650   0.54533   0.07712   1.000
    O152    O    0.71287   0.73275   0.06831   1.000
    O153    O    0.80483   0.72336   0.08936   1.000
    O154    O    0.65974   0.17736   0.08371   1.000
    O155    O    0.76877   0.23517   0.12656   1.000
    O156    O    0.72488   0.21384   0.02480   1.000
    O157    O    0.04415   0.19136   0.10686   1.000
    O158    O    0.59473   0.13916   0.13816   1.000
    O159    O    0.91192   0.54218   0.09842   1.000
    O160    O    0.91221   0.62236   0.10563   1.000
    O161    O    0.06269   0.05069   0.12404   1.000
    O162    O    0.90649   0.70980   0.11182   1.000
    O163    O    0.89595   0.78630   0.11599   1.000
    O164    O    0.36415   0.81916   0.18458   1.000
    O165    O    0.04192   0.71004   0.14863   1.000
    O166    O    0.13498   0.39363   0.15069   1.000
    O167    O    0.09500   0.13815   0.13874   1.000
    O168    O    0.13942   0.23717   0.15915   1.000
    O169    O    0.15996   0.08369   0.17708   1.000
    O170    O    0.86412   0.28537   0.17059   1.000
    O171    O    0.60404   0.88690   0.21374   1.000
    O172    O    0.81408   0.25546   0.22584   1.000
    O173    O    0.18498   0.33820   0.18059   1.000
    O174    O    0.23039   0.43733   0.20110   1.000
    O175    O    0.14929   0.67192   0.17908   1.000
    O176    O    0.21300   0.59727   0.19825   1.000
    O177    O    0.13588   0.81542   0.18073   1.000
    O178    O    0.13556   0.74502   0.25195   1.000
    O179    O    0.18119   0.92887   0.19975   1.000
    O180    O    0.24957   0.28199   0.21811   1.000
    O181    O    0.54381   0.10740   0.19134   1.000
    O182    O    0.63926   0.15928   0.23716   1.000
    O183    O    0.22503   0.02478   0.21368   1.000
    O184    O    0.26883   0.12652   0.23532   1.000
    O185    O    0.28720   0.96693   0.23867   1.000
    O186    O    0.27492   0.53911   0.22243   1.000
    O187    O    0.31923   0.63495   0.23563   1.000
    O188    O    0.34009   0.48008   0.25774   1.000
    O189    O    0.78713   0.93505   0.26736   1.000
    O190    O    0.31403   0.22580   0.25593   1.000
    O191    O    0.36024   0.32669   0.27587   1.000
    O192    O    0.36438   0.74801   0.25485   1.000
    O193    O    0.35074   0.89188   0.25805   1.000
    O194    O    0.45805   0.85136   0.28992   1.000
    O195    O    0.35065   0.82097   0.32805   1.000
    O196    O    0.69515   0.91291   0.27666   1.000
    O197    O    0.59347   0.88925   0.29017   1.000
    O198    O    0.36405   0.17053   0.28590   1.000
    O199    O    0.74959   0.21776   0.28199   1.000
    O200    O    0.86044   0.27501   0.32671   1.000
    O201    O    0.68495   0.18038   0.33819   1.000
    O202    O    0.40534   0.42564   0.29500   1.000
    O203    O    0.43831   0.51326   0.30794   1.000
    O204    O    0.79282   0.94106   0.35251   1.000
    O205    O    0.45680   0.37228   0.32534   1.000
    O206    O    0.58773   0.89349   0.37758   1.000
    O207    O    0.18065   0.76442   0.36501   1.000
    O208    O    0.95605   0.32398   0.37229   1.000
    O209    O    0.90567   0.29382   0.42561   1.000
    O210    O    0.98121   0.98966   0.41497   1.000
    O211    O    0.63493   0.15054   0.39364   1.000
    O212    O    0.73047   0.20062   0.43735   1.000
    O213    O    0.28688   0.80198   0.40273   1.000
    O214    O    0.22492   0.77798   0.46088   1.000
    O215    O    0.89374   0.96964   0.42810   1.000
    O216    O    0.78686   0.94507   0.44303   1.000
    O217    O    0.68344   0.92115   0.45459   1.000
    O218    O    0.58799   0.89899   0.45770   1.000
    O219    O    0.23068   0.05397   0.47864   1.000
    O220    O    0.99997   0.99988   0.50000   1.000
    O221    O    0.06131   0.69309   0.48674   1.000
    O222    O    0.84035   0.25680   0.48006   1.000
    O223    O    0.93874   0.30655   0.51322   1.000
    O224    O    0.76927   0.94570   0.52136   1.000
    O225    O    0.77506   0.22186   0.53914   1.000
    O226    O    0.15966   0.74294   0.51992   1.000
    O227    O    0.26950   0.79921   0.56266   1.000
    O228    O    0.41196   0.10077   0.54231   1.000
    O229    O    0.31651   0.07861   0.54543   1.000
    O230    O    0.21309   0.05469   0.55695   1.000
    O231    O    0.09437   0.70587   0.57437   1.000
    O232    O    0.10621   0.03013   0.57188   1.000
    O233    O    0.01578   0.00630   0.58503   1.000
    O234    O    0.41222   0.10636   0.62243   1.000
    O235    O    0.20713   0.05879   0.64747   1.000
    O236    O    0.71309   0.19792   0.59729   1.000
    O237    O    0.81932   0.23548   0.63501   1.000
    O238    O    0.64932   0.17899   0.67194   1.000
    O239    O    0.36502   0.84936   0.60636   1.000
    O240    O    0.31502   0.81949   0.66180   1.000
    O241    O    0.04287   0.67568   0.62774   1.000
    O242    O    0.13958   0.72476   0.67331   1.000
    O243    O    0.54318   0.62771   0.67458   1.000
    O244    O    0.56169   0.48672   0.69190   1.000
    O245    O    0.86440   0.25495   0.74808   1.000
    O246    O    0.40648   0.11069   0.70980   1.000
    O247    O    0.54191   0.14859   0.71006   1.000
    O248    O    0.63591   0.82947   0.71415   1.000
    O249    O    0.59464   0.57434   0.70491   1.000
    O250    O    0.63974   0.67330   0.72407   1.000
    O251    O    0.30481   0.08704   0.72331   1.000
    O252    O    0.21282   0.06489   0.73265   1.000
    O253    O    0.65989   0.51990   0.74214   1.000
    O254    O    0.25040   0.78211   0.71800   1.000
    O255    O    0.36069   0.84068   0.76283   1.000
    O256    O    0.18591   0.74442   0.77416   1.000
    O257    O    0.68594   0.77419   0.74405   1.000
    O258    O    0.73111   0.87347   0.76474   1.000
    O259    O    0.64921   0.10812   0.74199   1.000
    O260    O    0.71276   0.03307   0.76145   1.000
    O261    O    0.39592   0.11312   0.78623   1.000
    O262    O    0.63558   0.25199   0.74491   1.000
    O263    O    0.63580   0.18086   0.81542   1.000
    O264    O    0.68073   0.36504   0.76412   1.000
    O265    O    0.75039   0.71798   0.78188   1.000
    O266    O    0.72505   0.46087   0.77748   1.000
    O267    O    0.76958   0.56264   0.79880   1.000
    O268    O    0.78697   0.40272   0.80168   1.000
    O269    O    0.77492   0.97521   0.78643   1.000
    O270    O    0.81875   0.07113   0.80035   1.000
    O271    O    0.83997   0.91629   0.82300   1.000
    O272    O    0.45610   0.89265   0.80866   1.000
    O273    O    0.40520   0.86089   0.86186   1.000
    O274    O    0.81498   0.66177   0.81938   1.000
    O275    O    0.86052   0.76280   0.84087   1.000
    O276    O    0.86407   0.18458   0.81931   1.000
    O277    O    0.85067   0.32808   0.82090   1.000
    O278    O    0.95803   0.28994   0.85138   1.000
    O279    O    0.85065   0.25818   0.89193   1.000
    O280    O    0.86498   0.60634   0.84924   1.000
    O281    O    0.13587   0.71452   0.82942   1.000
    O282    O    0.23120   0.76479   0.87340   1.000
    O283    O    0.90493   0.86183   0.86129   1.000
    O284    O    0.93723   0.94928   0.87605   1.000
    O285    O    0.95578   0.80860   0.89319   1.000
    O286    O    0.10399   0.21366   0.88402   1.000
    O287    O    0.09346   0.29016   0.88817   1.000
    O288    O    0.08774   0.37759   0.89433   1.000
    O289    O    0.68106   0.19996   0.92887   1.000
    O290    O    0.19511   0.27659   0.91061   1.000
    O291    O    0.08804   0.45778   0.90150   1.000
    O292    O    0.18345   0.45462   0.92279   1.000
    O293    O    0.34020   0.82269   0.91626   1.000
    O294    O    0.43760   0.87546   0.94930   1.000
    O295    O    0.28708   0.26720   0.93167   1.000
    O296    O    0.29279   0.35247   0.93958   1.000
    O297    O    0.28685   0.44306   0.94559   1.000
    O298    O    0.26929   0.52143   0.94804   1.000
    O299    O    0.39373   0.42809   0.96895   1.000
    O300    O    0.78706   0.23888   0.96696   1.000
    O301    O    0.48413   0.41489   0.98784   1.000
    O302    O    0.74996   0.21836   0.78168   1.000
    O303    O    0.25000   0.78164   0.21831   1.000
loop_
    _geom_bond_atom_site_label_1
    _geom_bond_atom_site_label_2
    _geom_bond_distance
    _geom_bond_site_symmetry_2
    _ccdc_geom_bond_type
    C47    O140      0.55010      .   S
    C119   O140      0.55010      .   S
    C9     O141      0.54422      .   S
    C57    O141      0.54422      .   S
    C119   O142      0.72727      .   S
    C116   O142      0.72727      .   S
    C119   O143      0.67690  1_554   S
    C83    O143      0.67690      .   S
    C94    O144      0.64090      .   S
    C133   O144      0.64090      .   S
    C94    O145      0.64161      .   S
    C132   O145      0.64161      .   S
    C94    O146      0.74226  1_554   S
    C84    O146      0.74226      .   S
    C133   O147      0.96389      .   S
    C3     O147      0.96389      .   S
    C45    O148      0.54437      .   S
    C117   O148      0.54437      .   S
    C116   O149      0.70521      .   S
    C117   O149      0.70521      .   S
    C116   O150      0.70369      .   S
    C115   O150      0.70369      .   S
    C117   O151      0.69303      .   S
    C118   O151      0.69303      .   S
    C44    O152      0.54521      .   S
    C115   O152      0.54521      .   S
    C115   O153      0.69294      .   S
    C114   O153      0.69294      .   S
    C48    O154      0.71235      .   S
    C57    O154      0.71235      .   S
    C48    O155      0.69421      .   S
    C49    O155      0.69421      .   S
    C48    O156      0.74214      .   S
    C58    O156      0.74214  1_556   S
    C41    O157      0.54525  1_655   S
    C110   O157      0.54525      .   S
    C57    O158      0.68744      .   S
    C56    O158      0.68744      .   S
    C118   O159      0.54425      .   S
    C46    O159      0.54425      .   S
    C118   O160      0.67752      .   S
    C123   O160      0.67752      .   S
    C42    O161      0.54423      .   S
    C111   O161      0.54423      .   S
    C114   O162      0.67522      .   S
    C123   O162      0.67522      .   S
    C114   O163      0.54412      .   S
    C43    O163      0.54412      .   S
    C132   O164      0.95582      .   S
    C2     O164      0.95582      .   S
    C123   O165      1.05351  1_655   S
    C3     O165      1.05351      .   S
    C40    O166      0.54456      .   S
    C108   O166      0.54456      .   S
    C110   O167      0.68741      .   S
    C111   O167      0.68741      .   S
    C110   O168      0.71168      .   S
    C109   O168      0.71168      .   S
    C111   O169      0.71233      .   S
    C102   O169      0.71233      .   S
    C4     O170      0.54425      .   S
    C49    O170      0.54425      .   S
    C32    O171      0.54363      .   S
    C96    O171      0.54363      .   S
    C49    O172      0.70654      .   S
    C50    O172      0.70654      .   S
    C108   O173      0.70657      .   S
    C109   O173      0.70657      .   S
    C108   O174      0.69416      .   S
    C107   O174      0.69416      .   S
    C138   O175      0.95723      .   S
    C3     O175      0.95723      .   S
    C138   O176      0.64138      .   S
    C113   O176      0.64138      .   S
    C3     O177      0.95632      .   S
    C136   O177      0.95632      .   S
    C3     O178      0.95496      .   S
    C135   O178      0.95496      .   S
    C136   O179      0.64140      .   S
    C112   O179      0.64140      .   S
    C109   O180      0.71922      .   S
    C104   O180      0.71922      .   S
    C56    O181      0.54523      .   S
    C8     O181      0.54523      .   S
    C56    O182      0.71149      .   S
    C55    O182      0.71149      .   S
    C102   O183      0.74181      .   S
    C112   O183      0.74181  1_565   S
    C102   O184      0.69420      .   S
    C103   O184      0.69420      .   S
    C112   O185      0.64086      .   S
    C137   O185      0.64086      .   S
    C113   O186      0.74261      .   S
    C107   O186      0.74261      .   S
    C113   O187      0.64008      .   S
    C139   O187      0.64008      .   S
    C107   O188      0.71143      .   S
    C106   O188      0.71143      .   S
    C33    O189      0.54528      .   S
    C97    O189      0.54528      .   S
    C104   O190      0.70658      .   S
    C103   O190      0.70658      .   S
    C104   O191      0.71108      .   S
    C105   O191      0.71108      .   S
    C139   O192      0.95478      .   S
    C2     O192      0.95478      .   S
    C2     O193      0.96330      .   S
    C137   O193      0.96330      .   S
    C2     O194      1.05333      .   S
    C122   O194      1.05333      .   S
    C2     O195      0.95791      .   S
    C134   O195      0.95791      .   S
    C96    O196      0.69294      .   S
    C97    O196      0.69294      .   S
    C96    O197      0.67567      .   S
    C122   O197      0.67567      .   S
    C103   O198      0.54426      .   S
    C37    O198      0.54426      .   S
    C50    O199      0.71909      .   S
    C55    O199      0.71909      .   S
    C50    O200      0.71108      .   S
    C51    O200      0.71108      .   S
    C55    O201      0.70689      .   S
    C54    O201      0.70689      .   S
    C106   O202      0.68780      .   S
    C105   O202      0.68780      .   S
    C106   O203      0.54437      .   S
    C39    O203      0.54437      .   S
    C97    O204      0.70326      .   S
    C98    O204      0.70326      .   S
    C105   O205      0.54573      .   S
    C38    O205      0.54573      .   S
    C122   O206      0.67748      .   S
    C100   O206      0.67748      .   S
    C135   O207      0.64009      .   S
    C95    O207      0.64009      .   S
    C5     O208      0.53489  1_455   S
    C51    O208      0.53489      .   S
    C51    O209      0.68726      .   S
    C52    O209      0.68726      .   S
    C36    O210      0.52463  1_455   S
    C101   O210      0.52463      .   S
    C54    O211      0.54458      .   S
    C7     O211      0.54458      .   S
    C54    O212      0.69420      .   S
    C53    O212      0.69420      .   S
    C134   O213      0.64142      .   S
    C95    O213      0.64142      .   S
    C95    O214      0.74267      .   S
    C89    O214      0.74267      .   S
    C98    O215      0.72719      .   S
    C101   O215      0.72719      .   S
    C98    O216      0.70559      .   S
    C99    O216      0.70559      .   S
    C100   O217      0.69300      .   S
    C99    O217      0.69300      .   S
    C100   O218      0.54426      .   S
    C35    O218      0.54426      .   S
    C12    O219      0.54439      .   S
    C63    O219      0.54439      .   S
    C101   O220      0.67692      .   S
    C65    O220      0.67692  1_445   S
    C28    O221      0.54439      .   S
    C88    O221      0.54439      .   S
    C52    O222      0.71170      .   S
    C53    O222      0.71170      .   S
    C52    O223      0.54470      .   S
    C6     O223      0.54470      .   S
    C99    O224      0.54437      .   S
    C34    O224      0.54437      .   S
    C53    O225      0.74269      .   S
    C59    O225      0.74269      .   S
    C89    O226      0.71149      .   S
    C88    O226      0.71149      .   S
    C89    O227      0.69420      .   S
    C90    O227      0.69420      .   S
    C13    O228      0.54424      .   S
    C64    O228      0.54424      .   S
    C63    O229      0.69300      .   S
    C64    O229      0.69300      .   S
    C63    O230      0.70522      .   S
    C62    O230      0.70522      .   S
    C88    O231      0.68781      .   S
    C87    O231      0.68781      .   S
    C65    O232      0.72719      .   S
    C62    O232      0.72719      .   S
    C65    O233      0.54935      .   S
    C14    O233      0.54935  1_655   S
    C64    O234      0.67750      .   S
    C120   O234      0.67750      .   S
    C62    O235      0.70368      .   S
    C61    O235      0.70368      .   S
    C59    O236      0.64140      .   S
    C126   O236      0.64140      .   S
    C59    O237      0.64008      .   S
    C127   O237      0.64008      .   S
    C126   O238      0.95752      .   S
    C0     O238      0.95752      .   S
    C29    O239      0.54464      .   S
    C90    O239      0.54464      .   S
    C90    O240      0.70659      .   S
    C91    O240      0.70659      .   S
    C87    O241      0.54573      .   S
    C27    O241      0.54573  1_655   S
    C87    O242      0.71106      .   S
    C86    O242      0.71106      .   S
    C16    O243      0.54572      .   S
    C69    O243      0.54572      .   S
    C17    O244      0.54437      .   S
    C70    O244      0.54437      .   S
    C127   O245      0.95495      .   S
    C1     O245      0.95495      .   S
    C120   O246      0.67519      .   S
    C60    O246      0.67519      .   S
    C120   O247      1.05335      .   S
    C0     O247      1.05335      .   S
    C15    O248      0.54414      .   S
    C67    O248      0.54414      .   S
    C69    O249      0.68780      .   S
    C70    O249      0.68780      .   S
    C69    O250      0.71108      .   S
    C68    O250      0.71108      .   S
    C61    O251      0.69292      .   S
    C60    O251      0.69292      .   S
    C61    O252      0.54516      .   S
    C11    O252      0.54516      .   S
    C70    O253      0.71143      .   S
    C71    O253      0.71143      .   S
    C91    O254      0.71920      .   S
    C86    O254      0.71920      .   S
    C91    O255      0.71166      .   S
    C92    O255      0.71166      .   S
    C86    O256      0.70622      .   S
    C85    O256      0.70622      .   S
    C67    O257      0.70664      .   S
    C68    O257      0.70664      .   S
    C67    O258      0.69426      .   S
    C66    O258      0.69426      .   S
    C129   O259      0.96333      .   S
    C0     O259      0.96333      .   S
    C129   O260      0.64083      .   S
    C76    O260      0.64083      .   S
    C60    O261      0.54411      .   S
    C10    O261      0.54411      .   S
    C0     O262      0.95488      .   S
    C131   O262      0.95488      .   S
    C0     O263      0.95629      .   S
    C124   O263      0.95629      .   S
    C131   O264      0.64011      .   S
    C77    O264      0.64011      .   S
    C68    O265      0.71922      .   S
    C73    O265      0.71922      .   S
    C71    O266      0.74260      .   S
    C77    O266      0.74260      .   S
    C71    O267      0.69414      .   S
    C72    O267      0.69414      .   S
    C77    O268      0.64136      .   S
    C130   O268      0.64136      .   S
    C76    O269      0.74180  1_545   S
    C66    O269      0.74180      .   S
    C76    O270      0.64140      .   S
    C128   O270      0.64140      .   S
    C66    O271      0.71214      .   S
    C75    O271      0.71214      .   S
    C30    O272      0.54525      .   S
    C92    O272      0.54525      .   S
    C92    O273      0.68744      .   S
    C93    O273      0.68744      .   S
    C73    O274      0.70653      .   S
    C72    O274      0.70653      .   S
    C73    O275      0.71167      .   S
    C74    O275      0.71167      .   S
    C128   O276      0.95634      .   S
    C1     O276      0.95634      .   S
    C1     O277      0.95724      .   S
    C130   O277      0.95724      .   S
    C1     O278      1.05345      .   S
    C121   O278      1.05345  1_455   S
    C1     O279      0.96352      .   S
    C125   O279      0.96352      .   S
    C72    O280      0.54460      .   S
    C18    O280      0.54460      .   S
    C85    O281      0.54440      .   S
    C26    O281      0.54440      .   S
    C85    O282      0.69407      .   S
    C84    O282      0.69407      .   S
    C75    O283      0.68752      .   S
    C74    O283      0.68752      .   S
    C75    O284      0.54428      .   S
    C20    O284      0.54428      .   S
    C74    O285      0.54519      .   S
    C19    O285      0.54519  1_455   S
    C21    O286      0.54414      .   S
    C78    O286      0.54414      .   S
    C121   O287      0.67522      .   S
    C78    O287      0.67522      .   S
    C121   O288      0.67753      .   S
    C82    O288      0.67753      .   S
    C124   O289      0.64138      .   S
    C58    O289      0.64138      .   S
    C78    O290      0.69293      .   S
    C79    O290      0.69293      .   S
    C24    O291      0.54425      .   S
    C82    O291      0.54425      .   S
    C82    O292      0.69303      .   S
    C81    O292      0.69303      .   S
    C93    O293      0.71212      .   S
    C84    O293      0.71212      .   S
    C93    O294      0.54420      .   S
    C31    O294      0.54420      .   S
    C79    O295      0.54520      .   S
    C22    O295      0.54520      .   S
    C79    O296      0.70369      .   S
    C80    O296      0.70369      .   S
    C81    O297      0.70521      .   S
    C80    O297      0.70521      .   S
    C81    O298      0.54438      .   S
    C23    O298      0.54438      .   S
    C80    O299      0.72727      .   S
    C83    O299      0.72727      .   S
    C125   O300      0.64088      .   S
    C58    O300      0.64088      .   S
    C83    O301      0.54667      .   S
    C25    O301      0.54667      .   S
    C0     O302      1.16107      .   S
    C1     O302      1.16107      .   S
    C2     O303      1.16104      .   S
    C3     O303      1.16104      .   S
