# CIF file generated by openbabel 2.4.90, see http://openbabel.sf.net
data_I
_chemical_name_common ''
_cell_length_a 9.73
_cell_length_b 13.257
_cell_length_c 20.935
_cell_angle_alpha 86.324
_cell_angle_beta 80.17
_cell_angle_gamma 68.899
_space_group_name_H-M_alt 'P 1'
_space_group_name_Hall 'P 1'
loop_
    _symmetry_equiv_pos_as_xyz
    x,y,z
loop_
    _atom_site_label
    _atom_site_type_symbol
    _atom_site_fract_x
    _atom_site_fract_y
    _atom_site_fract_z
    _atom_site_occupancy
    Zn0     Zn   0.14506   0.74744   0.49741   1.000
    Zn1     Zn   0.39599   0.24917   0.99799   1.000
    Zn2     Zn   0.85483   0.25262   0.50260   1.000
    Zn3     Zn   0.60396   0.75088   0.00203   1.000
    C4      C    0.81342   0.68303   0.89045   1.000
    C5      C    0.29441   0.83049   0.98205   1.000
    C6      C    0.01226   0.67580   0.61100   1.000
    C7      C    0.37371   0.82947   0.51790   1.000
    C8      C    0.18654   0.31701   0.10956   1.000
    C9      C    0.70552   0.16957   0.01796   1.000
    C10     C    0.98765   0.32427   0.38901   1.000
    C11     C    0.62622   0.17058   0.48210   1.000
    O12     O    0.69323   0.76456   0.91143   1.000
    O13     O    0.88329   0.60857   0.92498   1.000
    O14     O    0.38758   0.84040   0.01696   1.000
    O15     O    0.32408   0.75692   0.94217   1.000
    O16     O    0.03962   0.76143   0.58723   1.000
    O17     O    0.02846   0.59508   0.57909   1.000
    O18     O    0.27073   0.83934   0.48306   1.000
    O19     O    0.41723   0.75537   0.55763   1.000
    O20     O    0.30672   0.23547   0.08858   1.000
    O21     O    0.11669   0.39148   0.07503   1.000
    O22     O    0.61236   0.15964   0.98305   1.000
    O23     O    0.67585   0.24316   0.05784   1.000
    O24     O    0.96028   0.23865   0.41278   1.000
    O25     O    0.97143   0.40500   0.42092   1.000
    O26     O    0.72918   0.16071   0.51695   1.000
    O27     O    0.58275   0.24466   0.44235   1.000
loop_
    _geom_bond_atom_site_label_1
    _geom_bond_atom_site_label_2
    _geom_bond_distance
    _geom_bond_site_symmetry_2
    _ccdc_geom_bond_type
    Zn3    O14       1.99060      .   S
    Zn3    O12       1.97259  1_554   S
    O14    C5        1.30284  1_554   S
    C9     O23       1.24556      .   S
    C9     O22       1.30287  1_554   S
    O21    C8        1.24594      .   S
    O20    C8        1.30542      .   S
    O20    Zn1       1.97264  1_554   S
    C10    O24       1.30649      .   S
    C10    O25       1.24526      .   S
    O24    Zn2       1.96778      .   S
    O27    C11       1.24587      .   S
    C11    O26       1.30233      .   S
    O18    Zn0       1.99247      .   S
    O18    C7        1.30232      .   S
    Zn0    O16       1.96780      .   S
    Zn2    O26       1.99242      .   S
    C7     O19       1.24588      .   S
    O17    C6        1.24527      .   S
    O16    C6        1.30648      .   S
    C4     O12       1.30541      .   S
    C4     O13       1.24596      .   S
    O15    C5        1.24557      .   S
    O22    Zn1       1.99053      .   S
