# CIF file generated by openbabel 2.4.90, see http://openbabel.sf.net
data_I
_chemical_name_common ''
_cell_length_a 9.73
_cell_length_b 13.257
_cell_length_c 20.935
_cell_angle_alpha 86.324
_cell_angle_beta 80.17
_cell_angle_gamma 68.899
_space_group_name_H-M_alt 'P 1'
_space_group_name_Hall 'P 1'
loop_
    _symmetry_equiv_pos_as_xyz
    x,y,z
loop_
    _atom_site_label
    _atom_site_type_symbol
    _atom_site_fract_x
    _atom_site_fract_y
    _atom_site_fract_z
    _atom_site_occupancy
    N0      N    0.91173   0.68161   0.75070   1.000
    N1      N    0.63997   0.22063   0.24997   1.000
    N2      N    0.08821   0.31845   0.24931   1.000
    N3      N    0.99997   0.99872   0.00001   1.000
    N4      N    0.35995   0.77944   0.75004   1.000
    N5      N    0.49996   0.99865   0.50000   1.000
    Zr6     Zr   0.57142   0.74784   0.95287   1.000
    O7      O    0.59823   0.59897   0.04505   1.000
    O8      O    0.60347   0.87888   0.04684   1.000
    O9      O    0.72337   0.71510   0.87770   1.000
    O10     O    0.34021   0.84209   0.97329   1.000
    Zr11    Zr   0.81605   0.25664   0.45239   1.000
    O12     O    0.69551   0.40391   0.54506   1.000
    O13     O    0.98055   0.12404   0.54672   1.000
    O14     O    0.93363   0.28850   0.37676   1.000
    O15     O    0.68126   0.15969   0.47305   1.000
    Zr16    Zr   0.18387   0.74342   0.54762   1.000
    O17     O    0.31865   0.83968   0.52696   1.000
    O18     O    0.30440   0.59615   0.45495   1.000
    O19     O    0.01936   0.87602   0.45329   1.000
    O20     O    0.06629   0.71156   0.62325   1.000
    Zr21    Zr   0.42852   0.25221   0.04714   1.000
    O22     O    0.40171   0.40108   0.95496   1.000
    O23     O    0.39647   0.12118   0.95318   1.000
    O24     O    0.27657   0.28495   0.12231   1.000
    O25     O    0.65973   0.15732   0.02673   1.000
loop_
    _geom_bond_atom_site_label_1
    _geom_bond_atom_site_label_2
    _geom_bond_distance
    _geom_bond_site_symmetry_2
    _ccdc_geom_bond_type
    Zr6    O7        2.64567  1_556   S
    N1     O7        6.33217      .   S
    Zr6    O8        2.83250  1_556   S
    N1     O8        6.54848  1_545   S
    Zr6    O9        1.91873      .   S
    N0     O9        2.92006      .   S
    Zr6    O10       2.12632      .   S
    N3     O10       3.18613  1_654   S
    Zr11   O12       2.64789      .   S
    N4     O12       6.33325      .   S
    Zr11   O13       2.85663      .   S
    N4     O13       6.58359  1_465   S
    Zr11   O14       1.90731      .   S
    N2     O14       2.90902  1_455   S
    Zr11   O15       2.12315      .   S
    N5     O15       3.19467  1_565   S
    Zr16   O17       2.11567      .   S
    N5     O17       3.17112      .   S
    Zr16   O18       2.64780      .   S
    N1     O18       6.33315      .   S
    Zr16   O19       2.85662      .   S
    N1     O19       6.58357  1_645   S
    Zr16   O20       1.90734      .   S
    N0     O20       2.90906  1_655   S
    Zr21   O22       2.64572  1_554   S
    N4     O22       6.33231      .   S
    Zr21   O23       2.83249  1_554   S
    N4     O23       6.54846  1_565   S
    Zr21   O24       1.91876      .   S
    N2     O24       2.92011      .   S
    Zr21   O25       2.12818      .   S
    N3     O25       3.19370  1_565   S
