# CIF file generated by openbabel 2.4.90, see http://openbabel.sf.net
data_I
_chemical_name_common ''
_cell_length_a 9.73
_cell_length_b 13.257
_cell_length_c 20.935
_cell_angle_alpha 86.324
_cell_angle_beta 80.17
_cell_angle_gamma 68.899
_space_group_name_H-M_alt 'P 1'
_space_group_name_Hall 'P 1'
loop_
    _symmetry_equiv_pos_as_xyz
    x,y,z
loop_
    _atom_site_label
    _atom_site_type_symbol
    _atom_site_fract_x
    _atom_site_fract_y
    _atom_site_fract_z
    _atom_site_occupancy
    Zr0     Zr   0.60396   0.75088   0.00203   1.000
    Zr1     Zr   0.14506   0.74744   0.49741   1.000
    Zr2     Zr   0.39599   0.24917   0.99799   1.000
    Zr3     Zr   0.85483   0.25262   0.50260   1.000
    Zr4     Zr   0.81342   0.68303   0.89045   1.000
    Zr5     Zr   0.29441   0.83049   0.98205   1.000
    Zr6     Zr   0.01226   0.67580   0.61100   1.000
    Zr7     Zr   0.37371   0.82947   0.51790   1.000
    Zr8     Zr   0.18654   0.31701   0.10956   1.000
    Zr9     Zr   0.70552   0.16957   0.01796   1.000
    Zr10    Zr   0.98765   0.32427   0.38901   1.000
    Zr11    Zr   0.62622   0.17058   0.48210   1.000
    Zr12    Zr   0.69323   0.76456   0.91143   1.000
    Zr13    Zr   0.88329   0.60857   0.92498   1.000
    Zr14    Zr   0.38758   0.84040   0.01696   1.000
    Zr15    Zr   0.32408   0.75692   0.94217   1.000
    Zr16    Zr   0.03962   0.76143   0.58723   1.000
    Zr17    Zr   0.02846   0.59508   0.57909   1.000
    Zr18    Zr   0.27073   0.83934   0.48306   1.000
    Zr19    Zr   0.41723   0.75537   0.55763   1.000
    Zr20    Zr   0.30672   0.23547   0.08858   1.000
    Zr21    Zr   0.11669   0.39148   0.07503   1.000
    Zr22    Zr   0.61236   0.15964   0.98305   1.000
    Zr23    Zr   0.67585   0.24316   0.05784   1.000
    Zr24    Zr   0.96028   0.23865   0.41278   1.000
    Zr25    Zr   0.97143   0.40500   0.42092   1.000
    Zr26    Zr   0.72918   0.16071   0.51695   1.000
    Zr27    Zr   0.58275   0.24466   0.44235   1.000
    O28     O    0.49577   0.79564   0.00949   1.000
    O29     O    0.64859   0.75772   0.95673   1.000
    O30     O    0.34099   0.83545   0.99951   1.000
    O31     O    0.69068   0.20637   0.03790   1.000
    O32     O    0.65894   0.16461   0.00051   1.000
    O33     O    0.15162   0.35424   0.09229   1.000
    O34     O    0.24663   0.27624   0.09907   1.000
    O35     O    0.35136   0.24232   0.04329   1.000
    O36     O    0.97396   0.28146   0.40089   1.000
    O37     O    0.97954   0.36463   0.40496   1.000
    O38     O    0.90755   0.24563   0.45769   1.000
    O39     O    0.60449   0.20762   0.46223   1.000
    O40     O    0.67770   0.16564   0.49953   1.000
    O41     O    0.20790   0.79339   0.49023   1.000
    O42     O    0.32222   0.83440   0.50048   1.000
    O43     O    0.09234   0.75443   0.54232   1.000
    O44     O    0.79200   0.20666   0.50978   1.000
    O45     O    0.39547   0.79242   0.53776   1.000
    O46     O    0.02036   0.63544   0.59505   1.000
    O47     O    0.02594   0.71861   0.59912   1.000
    O48     O    0.75332   0.72380   0.90094   1.000
    O49     O    0.84835   0.64580   0.90772   1.000
    O50     O    0.30925   0.79370   0.96211   1.000
    O51     O    0.50417   0.20441   0.99052   1.000
    N52     N    0.91173   0.68161   0.75070   1.000
    O53     O    0.94870   0.67970   0.69888   1.000
    O54     O    0.87532   0.68237   0.80254   1.000
    N55     N    0.63997   0.22063   0.24997   1.000
    O56     O    0.42494   0.44888   0.36228   1.000
    O57     O    0.85486   0.00863   0.35896   1.000
    O58     O    0.63552   0.00993   0.14081   1.000
    O59     O    0.62504   0.45011   0.13723   1.000
    N60     N    0.08821   0.31845   0.24931   1.000
    O61     O    0.05122   0.32036   0.30113   1.000
    O62     O    0.12462   0.31768   0.19748   1.000
    N63     N    0.99997   0.99872   0.00001   1.000
    O64     O    0.89094   0.06242   0.00631   1.000
    O65     O    0.10900   0.93633   0.99371   1.000
    N66     N    0.35995   0.77944   0.75004   1.000
    O67     O    0.37489   0.54995   0.86278   1.000
    O68     O    0.57497   0.55118   0.63773   1.000
    O69     O    0.14505   0.99144   0.64105   1.000
    O70     O    0.36441   0.99014   0.85921   1.000
    N71     N    0.49996   0.99865   0.50000   1.000
    O72     O    0.54648   0.06273   0.49370   1.000
    O73     O    0.45344   0.93594   0.50630   1.000
loop_
    _geom_bond_atom_site_label_1
    _geom_bond_atom_site_label_2
    _geom_bond_distance
    _geom_bond_site_symmetry_2
    _ccdc_geom_bond_type
    Zr0    O28       0.99530      .   S
    Zr14   O28       0.99530      .   S
    Zr0    O29       0.98629  1_554   S
    Zr12   O29       0.98629      .   S
    Zr14   O30       0.65142  1_554   S
    Zr5    O30       0.65142      .   S
    Zr9    O31       0.62278      .   S
    Zr23   O31       0.62278      .   S
    Zr9    O32       0.65143      .   S
    Zr22   O32       0.65143  1_556   S
    Zr21   O33       0.62297      .   S
    Zr8    O33       0.62297      .   S
    Zr20   O34       0.65271      .   S
    Zr8    O34       0.65271      .   S
    Zr20   O35       0.98632      .   S
    Zr2    O35       0.98632  1_556   S
    Zr10   O36       0.65325      .   S
    Zr24   O36       0.65325      .   S
    Zr10   O37       0.62263      .   S
    Zr25   O37       0.62263      .   S
    Zr24   O38       0.98389      .   S
    Zr3    O38       0.98389      .   S
    Zr27   O39       0.62294      .   S
    Zr11   O39       0.62294      .   S
    Zr11   O40       0.65117      .   S
    Zr26   O40       0.65117      .   S
    Zr18   O41       0.99624      .   S
    Zr1    O41       0.99624      .   S
    Zr18   O42       0.65116      .   S
    Zr7    O42       0.65116      .   S
    Zr1    O43       0.98390      .   S
    Zr16   O43       0.98390      .   S
    Zr3    O44       0.99621      .   S
    Zr26   O44       0.99621      .   S
    Zr7    O45       0.62294      .   S
    Zr19   O45       0.62294      .   S
    Zr17   O46       0.62263      .   S
    Zr6    O46       0.62263      .   S
    Zr16   O47       0.65324      .   S
    Zr6    O47       0.65324      .   S
    Zr4    O48       0.65271      .   S
    Zr12   O48       0.65271      .   S
    Zr4    O49       0.62298      .   S
    Zr13   O49       0.62298      .   S
    Zr15   O50       0.62279      .   S
    Zr5    O50       0.62279      .   S
    Zr22   O51       0.99527      .   S
    Zr2    O51       0.99527      .   S
    N52    O53       1.08198      .   S
    Zr6    O53       1.83587  1_455   S
    N52    O54       1.08205      .   S
    Zr4    O54       1.83575      .   S
    N55    O56       3.70613      .   S
    Zr1    O56       4.70411      .   S
    N55    O57       3.74857      .   S
    Zr1    O57       4.77822  1_465   S
    N55    O58       3.73731      .   S
    Zr0    O58       4.76156  1_565   S
    N55    O59       3.70481      .   S
    Zr0    O59       4.70253      .   S
    N60    O61       1.08198      .   S
    Zr10   O61       1.83584  1_655   S
    N60    O62       1.08206      .   S
    Zr8    O62       1.83576      .   S
    N63    O64       1.08507  1_565   S
    Zr9    O64       1.83876      .   S
    N63    O65       1.07762  1_654   S
    Zr5    O65       1.83139      .   S
    N66    O67       3.70490      .   S
    Zr2    O67       4.70268      .   S
    N66    O68       3.70614      .   S
    Zr3    O68       4.70416      .   S
    N66    O69       3.74859      .   S
    Zr3    O69       4.77826  1_645   S
    N66    O70       3.73730      .   S
    Zr2    O70       4.76153  1_545   S
    N71    O72       1.08917  1_565   S
    Zr11   O72       1.84254      .   S
    N71    O73       1.07227      .   S
    Zr7    O73       1.82569      .   S
