# CIF file generated by openbabel 2.4.90, see http://openbabel.sf.net
data_I
_chemical_name_common ''
_cell_length_a 18.426
_cell_length_b 18.432
_cell_length_c 18.431
_cell_angle_alpha 60.143
_cell_angle_beta 60.16
_cell_angle_gamma 60.158
_space_group_name_H-M_alt 'P 1'
_space_group_name_Hall 'P 1'
loop_
    _symmetry_equiv_pos_as_xyz
    x,y,z
loop_
    _atom_site_label
    _atom_site_type_symbol
    _atom_site_fract_x
    _atom_site_fract_y
    _atom_site_fract_z
    _atom_site_occupancy
    Zn0     Zn   0.38047   0.20663   0.20663   1.000
    Zn1     Zn   0.20636   0.20630   0.20632   1.000
    Zn2     Zn   0.20663   0.20671   0.38044   1.000
    Zn3     Zn   0.61953   0.79333   0.79338   1.000
    Zn4     Zn   0.79336   0.61954   0.79329   1.000
    Zn5     Zn   0.79364   0.79365   0.79369   1.000
    Zn6     Zn   0.79337   0.79325   0.61957   1.000
    Zn7     Zn   0.20663   0.38042   0.20672   1.000
    C8      C    0.11095   0.38889   0.11099   1.000
    C9      C    0.38908   0.11116   0.38900   1.000
    C10     C    0.11095   0.11098   0.38891   1.000
    C11     C    0.38908   0.38904   0.11114   1.000
    C12     C    0.11111   0.38908   0.38910   1.000
    C13     C    0.38894   0.11094   0.11094   1.000
    C14     C    0.61106   0.88902   0.88907   1.000
    C15     C    0.88889   0.61088   0.61090   1.000
    C16     C    0.88905   0.88898   0.61110   1.000
    C17     C    0.61092   0.61091   0.88887   1.000
    C18     C    0.61092   0.88880   0.61090   1.000
    C19     C    0.88905   0.61106   0.88902   1.000
    O20     O    0.24999   0.24997   0.24998   1.000
    O21     O    0.75001   0.74999   0.75003   1.000
    O22     O    0.13317   0.42850   0.13322   1.000
    O23     O    0.42868   0.13332   0.30520   1.000
    O24     O    0.13291   0.30510   0.13296   1.000
    O25     O    0.30529   0.13331   0.42864   1.000
    O26     O    0.13291   0.13295   0.30511   1.000
    O27     O    0.42868   0.30527   0.13332   1.000
    O28     O    0.13317   0.13322   0.42852   1.000
    O29     O    0.30529   0.42863   0.13333   1.000
    O30     O    0.13328   0.30529   0.42869   1.000
    O31     O    0.42857   0.13316   0.13316   1.000
    O32     O    0.13328   0.42868   0.30531   1.000
    O33     O    0.30512   0.13291   0.13292   1.000
    O34     O    0.57143   0.86679   0.86685   1.000
    O35     O    0.86672   0.57128   0.69470   1.000
    O36     O    0.69487   0.86705   0.86709   1.000
    O37     O    0.86672   0.69466   0.57132   1.000
    O38     O    0.86709   0.86701   0.69490   1.000
    O39     O    0.69471   0.57133   0.86668   1.000
    O40     O    0.86683   0.86674   0.57149   1.000
    O41     O    0.57132   0.69469   0.86669   1.000
    O42     O    0.69471   0.86664   0.57137   1.000
    O43     O    0.86682   0.57146   0.86679   1.000
    O44     O    0.57132   0.86664   0.69470   1.000
    O45     O    0.86708   0.69486   0.86705   1.000
    Og46    Og   0.09184   0.40802   0.09187   1.000
    Og47    Og   0.40818   0.09201   0.40813   1.000
    Og48    Og   0.09184   0.09187   0.40803   1.000
    Og49    Og   0.40818   0.40815   0.09201   1.000
    Og50    Og   0.09199   0.40818   0.40820   1.000
    Og51    Og   0.40806   0.09183   0.09184   1.000
    Og52    Og   0.59194   0.90812   0.90817   1.000
    Og53    Og   0.90801   0.59178   0.59180   1.000
    Og54    Og   0.90816   0.90809   0.59198   1.000
    Og55    Og   0.59182   0.59181   0.90800   1.000
    Og56    Og   0.59182   0.90794   0.59180   1.000
    Og57    Og   0.90816   0.59194   0.90811   1.000
loop_
    _geom_bond_atom_site_label_1
    _geom_bond_atom_site_label_2
    _geom_bond_distance
    _geom_bond_site_symmetry_2
    _ccdc_geom_bond_type
    C13    O33       1.27733      .   S
    C13    O31       1.27715      .   S
    C8     O24       1.27730      .   S
    C8     O22       1.27703      .   S
    C11    O27       1.27710      .   S
    C11    O29       1.27714      .   S
    O33    Zn1       1.97336      .   S
    O24    Zn1       1.97292      .   S
    O31    Zn0       1.97225      .   S
    O22    Zn7       1.97189      .   S
    O27    Zn0       1.97163      .   S
    O29    Zn7       1.97162      .   S
    Zn1    O26       1.97295      .   S
    Zn0    O23       1.97048      .   S
    Zn7    O20       1.96693      .   S
    Zn7    O32       1.97193      .   S
    O20    Zn2       1.96698      .   S
    O26    C10       1.27735      .   S
    O23    C9        1.27739      .   S
    O32    C12       1.27718      .   S
    Zn2    O28       1.97183      .   S
    Zn2    O25       1.97155      .   S
    Zn2    O30       1.97183      .   S
    C10    O28       1.27716      .   S
    C9     O25       1.27726      .   S
    C12    O30       1.27712      .   S
    O37    C15       1.27710      .   S
    O37    Zn6       1.97183      .   S
    O42    C18       1.27698      .   S
    O42    Zn6       1.97157      .   S
    O40    C16       1.27716      .   S
    O40    Zn6       1.97185      .   S
    C15    O35       1.27732      .   S
    C18    O44       1.27739      .   S
    C16    O38       1.27734      .   S
    Zn6    O21       1.96698      .   S
    O44    Zn3       1.97211      .   S
    O35    Zn4       1.97194      .   S
    O38    Zn5       1.97295      .   S
    O21    Zn4       1.96693      .   S
    Zn4    O39       1.97162      .   S
    Zn4    O43       1.97189      .   S
    Zn3    O41       1.97162      .   S
    Zn3    O34       1.97225      .   S
    Zn5    O45       1.97292      .   S
    Zn5    O36       1.97335      .   S
    O39    C17       1.27712      .   S
    O41    C17       1.27712      .   S
    O43    C19       1.27700      .   S
    O34    C14       1.27714      .   S
    O45    C19       1.27730      .   S
    O36    C14       1.27733      .   S
    O20    Zn0       1.96703      .   S
    O20    Zn1       1.96827      .   S
    O21    Zn3       1.96705      .   S
    O21    Zn5       1.96827      .   S
    C8     Og46      0.49861      .   S
    C9     Og47      0.49870      .   S
    C10    Og48      0.49859      .   S
    C11    Og49      0.49845      .   S
    C12    Og50      0.49850      .   S
    C13    Og51      0.49864      .   S
    C14    Og52      0.49864      .   S
    C15    Og53      0.49847      .   S
    C16    Og54      0.49859      .   S
    C17    Og55      0.49845      .   S
    C18    Og56      0.49836      .   S
    C19    Og57      0.49832      .   S
