# CIF file generated by openbabel 2.4.90, see http://openbabel.sf.net
data_I
_chemical_name_common ''
_cell_length_a 18.426
_cell_length_b 18.432
_cell_length_c 18.431
_cell_angle_alpha 60.143
_cell_angle_beta 60.16
_cell_angle_gamma 60.158
_space_group_name_H-M_alt 'P 1'
_space_group_name_Hall 'P 1'
loop_
    _symmetry_equiv_pos_as_xyz
    x,y,z
loop_
    _atom_site_label
    _atom_site_type_symbol
    _atom_site_fract_x
    _atom_site_fract_y
    _atom_site_fract_z
    _atom_site_occupancy
    N0      N    0.50000   0.99998   0.49998   1.000
    N1      N    0.00000   0.99998   0.50001   1.000
    N2      N    0.50000   0.99998   0.00000   1.000
    N3      N    1.00000   0.49998   1.00000   1.000
    N4      N    1.00000   0.49998   0.50000   1.000
    N5      N    0.50000   0.49998   0.00001   1.000
    Zr6     Zr   0.74997   0.74994   0.74998   1.000
    O7      O    0.85441   0.64556   0.85440   1.000
    O8      O    0.64555   0.85434   0.64555   1.000
    O9      O    0.64555   0.64553   0.85438   1.000
    O10     O    0.85442   0.85438   0.64559   1.000
    O11     O    0.64558   0.85438   0.85442   1.000
    O12     O    0.85438   0.64552   0.64555   1.000
    Zr13    Zr   0.25002   0.25002   0.25002   1.000
    O14     O    0.14558   0.14558   0.35441   1.000
    O15     O    0.14558   0.35440   0.14559   1.000
    O16     O    0.35444   0.14561   0.35443   1.000
    O17     O    0.35441   0.14558   0.14558   1.000
    O18     O    0.35444   0.35443   0.14562   1.000
    O19     O    0.14562   0.35444   0.35445   1.000
loop_
    _geom_bond_atom_site_label_1
    _geom_bond_atom_site_label_2
    _geom_bond_distance
    _geom_bond_site_symmetry_2
    _ccdc_geom_bond_type
    Zr6    O7        2.72461      .   S
    N3     O7        3.79839      .   S
    Zr6    O8        2.72443      .   S
    N0     O8        3.79761      .   S
    Zr6    O9        2.72433      .   S
    N5     O9        3.79760  1_554   S
    Zr6    O10       2.72493      .   S
    N1     O10       3.79871  1_455   S
    Zr6    O11       2.72604      .   S
    N2     O11       3.79993  1_554   S
    Zr6    O12       2.72544      .   S
    N4     O12       3.79889      .   S
    Zr13   O14       2.72492      .   S
    N1     O14       3.79870  1_565   S
    Zr13   O15       2.72471      .   S
    N3     O15       3.79835  1_656   S
    Zr13   O16       2.72411      .   S
    N0     O16       3.79742  1_565   S
    Zr13   O17       2.72601      .   S
    N2     O17       3.79997  1_565   S
    Zr13   O18       2.72433      .   S
    N5     O18       3.79760      .   S
    Zr13   O19       2.72544      .   S
    N4     O19       3.79881  1_655   S
