# CIF file generated by openbabel 2.4.90, see http://openbabel.sf.net
data_I
_chemical_name_common ''
_cell_length_a 18.426
_cell_length_b 18.432
_cell_length_c 18.431
_cell_angle_alpha 60.143
_cell_angle_beta 60.16
_cell_angle_gamma 60.158
_space_group_name_H-M_alt 'P 1'
_space_group_name_Hall 'P 1'
loop_
    _symmetry_equiv_pos_as_xyz
    x,y,z
loop_
    _atom_site_label
    _atom_site_type_symbol
    _atom_site_fract_x
    _atom_site_fract_y
    _atom_site_fract_z
    _atom_site_occupancy
    C0      C    0.20663   0.38042   0.20672   1.000
    C1      C    0.38047   0.20663   0.20663   1.000
    C2      C    0.20636   0.20630   0.20632   1.000
    C3      C    0.20663   0.20671   0.38044   1.000
    C4      C    0.61953   0.79333   0.79338   1.000
    C5      C    0.79336   0.61954   0.79329   1.000
    C6      C    0.79364   0.79365   0.79369   1.000
    C7      C    0.79337   0.79325   0.61957   1.000
    C8      C    0.04845   0.56797   0.04846   1.000
    C9      C    0.56817   0.04816   0.33560   1.000
    C10     C    0.04774   0.33567   0.04775   1.000
    C11     C    0.33563   0.04820   0.56811   1.000
    C12     C    0.04774   0.04775   0.33568   1.000
    C13     C    0.56817   0.33565   0.04816   1.000
    C14     C    0.04846   0.04845   0.56799   1.000
    C15     C    0.33563   0.56809   0.04820   1.000
    C16     C    0.04816   0.33564   0.56817   1.000
    C17     C    0.56807   0.04841   0.04840   1.000
    C18     C    0.04816   0.56815   0.33566   1.000
    C19     C    0.33564   0.04775   0.04774   1.000
    C20     C    0.43193   0.95155   0.95161   1.000
    C21     C    0.95184   0.43181   0.66435   1.000
    C22     C    0.66436   0.95221   0.95227   1.000
    C23     C    0.95184   0.66432   0.43184   1.000
    C24     C    0.95226   0.95221   0.66433   1.000
    C25     C    0.66437   0.43187   0.95181   1.000
    C26     C    0.95154   0.95151   0.43202   1.000
    C27     C    0.43183   0.66431   0.95185   1.000
    C28     C    0.66437   0.95176   0.43190   1.000
    C29     C    0.95155   0.43199   0.95155   1.000
    C30     C    0.43183   0.95180   0.66430   1.000
    C31     C    0.95226   0.66429   0.95226   1.000
    C32     C    0.02685   0.53895   0.02685   1.000
    C33     C    0.53908   0.02668   0.40766   1.000
    C34     C    0.02644   0.40765   0.02644   1.000
    C35     C    0.40763   0.02670   0.53900   1.000
    C36     C    0.02644   0.02644   0.40767   1.000
    C37     C    0.53908   0.40764   0.02666   1.000
    C38     C    0.02685   0.02684   0.53897   1.000
    C39     C    0.40763   0.53904   0.02668   1.000
    C40     C    0.02667   0.40763   0.53900   1.000
    C41     C    0.53900   0.02682   0.02682   1.000
    C42     C    0.02667   0.53906   0.40766   1.000
    C43     C    0.40764   0.02645   0.02640   1.000
    C44     C    0.46100   0.97313   0.97319   1.000
    C45     C    0.97333   0.46090   0.59235   1.000
    C46     C    0.59236   0.97351   0.97357   1.000
    C47     C    0.97333   0.59233   0.46093   1.000
    C48     C    0.97356   0.97352   0.59234   1.000
    C49     C    0.59237   0.46092   0.97334   1.000
    C50     C    0.97315   0.97311   0.46104   1.000
    C51     C    0.46092   0.59232   0.97336   1.000
    C52     C    0.59236   0.97326   0.46090   1.000
    C53     C    0.97315   0.46101   0.97316   1.000
    C54     C    0.46092   0.97328   0.59235   1.000
    C55     C    0.97356   0.59231   0.97357   1.000
    C56     C    0.11095   0.38889   0.11099   1.000
    C57     C    0.05363   0.44626   0.05364   1.000
    C58     C    0.38908   0.11116   0.38900   1.000
    C59     C    0.44639   0.05371   0.44638   1.000
    C60     C    0.11095   0.11098   0.38891   1.000
    C61     C    0.05363   0.05364   0.44628   1.000
    C62     C    0.38908   0.38904   0.11114   1.000
    C63     C    0.44639   0.44636   0.05375   1.000
    C64     C    0.11111   0.38908   0.38910   1.000
    C65     C    0.05374   0.44638   0.44640   1.000
    C66     C    0.38894   0.11094   0.11094   1.000
    C67     C    0.44629   0.05362   0.05363   1.000
    C68     C    0.61106   0.88902   0.88907   1.000
    C69     C    0.55371   0.94634   0.94638   1.000
    C70     C    0.88889   0.61088   0.61090   1.000
    C71     C    0.94626   0.55358   0.55361   1.000
    C72     C    0.88905   0.88898   0.61110   1.000
    C73     C    0.94637   0.94631   0.55373   1.000
    C74     C    0.61092   0.61091   0.88887   1.000
    C75     C    0.55361   0.55360   0.94626   1.000
    C76     C    0.61092   0.88880   0.61090   1.000
    C77     C    0.55361   0.94624   0.55360   1.000
    C78     C    0.88905   0.61106   0.88902   1.000
    C79     C    0.94637   0.55369   0.94630   1.000
    C80     C    0.24999   0.24997   0.24998   1.000
    C81     C    0.75001   0.74999   0.75003   1.000
    C82     C    0.13317   0.42850   0.13322   1.000
    C83     C    0.42868   0.13332   0.30520   1.000
    C84     C    0.13291   0.30510   0.13296   1.000
    C85     C    0.30529   0.13331   0.42864   1.000
    C86     C    0.13291   0.13295   0.30511   1.000
    C87     C    0.42868   0.30527   0.13332   1.000
    C88     C    0.13317   0.13322   0.42852   1.000
    C89     C    0.30529   0.42863   0.13333   1.000
    C90     C    0.13328   0.30529   0.42869   1.000
    C91     C    0.42857   0.13316   0.13316   1.000
    C92     C    0.13328   0.42868   0.30531   1.000
    C93     C    0.30512   0.13291   0.13292   1.000
    C94     C    0.57143   0.86679   0.86685   1.000
    C95     C    0.86672   0.57128   0.69470   1.000
    C96     C    0.69487   0.86705   0.86709   1.000
    C97     C    0.86672   0.69466   0.57132   1.000
    C98     C    0.86709   0.86701   0.69490   1.000
    C99     C    0.69471   0.57133   0.86668   1.000
    C100    C    0.86683   0.86674   0.57149   1.000
    C101    C    0.57132   0.69469   0.86669   1.000
    C102    C    0.69471   0.86664   0.57137   1.000
    C103    C    0.86682   0.57146   0.86679   1.000
    C104    C    0.57132   0.86664   0.69470   1.000
    C105    C    0.86708   0.69486   0.86705   1.000
    O106    O    0.37164   0.03710   0.03707   1.000
    O107    O    0.42696   0.04003   0.04002   1.000
    O108    O    0.43432   0.99979   0.99980   1.000
    O109    O    0.03709   0.37166   0.03710   1.000
    O110    O    0.04003   0.42696   0.04004   1.000
    O111    O    0.99979   0.43433   0.99980   1.000
    O112    O    0.55363   0.37165   0.03741   1.000
    O113    O    0.49273   0.42700   0.04021   1.000
    O114    O    0.56572   0.43428   0.00000   1.000
    O115    O    0.37163   0.55356   0.03744   1.000
    O116    O    0.42701   0.49270   0.04022   1.000
    O117    O    0.43427   0.56568   0.00002   1.000
    O118    O    0.55353   0.03761   0.03761   1.000
    O119    O    0.49264   0.04022   0.04023   1.000
    O120    O    0.56568   0.00017   0.00020   1.000
    O121    O    0.03765   0.55346   0.03766   1.000
    O122    O    0.04024   0.49260   0.04025   1.000
    O123    O    0.00020   0.56563   0.00021   1.000
    O124    O    0.41761   0.08228   0.08229   1.000
    O125    O    0.08229   0.41758   0.08232   1.000
    O126    O    0.41773   0.41770   0.08245   1.000
    O127    O    0.34703   0.12192   0.12193   1.000
    O128    O    0.40875   0.12205   0.12205   1.000
    O129    O    0.12193   0.34700   0.12198   1.000
    O130    O    0.12206   0.40870   0.12211   1.000
    O131    O    0.40888   0.34715   0.12223   1.000
    O132    O    0.34718   0.40884   0.12224   1.000
    O133    O    0.25574   0.16961   0.16962   1.000
    O134    O    0.16964   0.25570   0.16964   1.000
    O135    O    0.40452   0.16990   0.16990   1.000
    O136    O    0.16990   0.40446   0.16997   1.000
    O137    O    0.40457   0.25595   0.16998   1.000
    O138    O    0.25596   0.40453   0.17003   1.000
    O139    O    0.16964   0.16963   0.25571   1.000
    O140    O    0.40457   0.16997   0.25592   1.000
    O141    O    0.22831   0.31520   0.22835   1.000
    O142    O    0.16996   0.40455   0.25602   1.000
    O143    O    0.22831   0.22834   0.31521   1.000
    O144    O    0.12193   0.12196   0.34701   1.000
    O145    O    0.40888   0.12224   0.34710   1.000
    O146    O    0.12219   0.40888   0.34721   1.000
    O147    O    0.55362   0.03742   0.37163   1.000
    O148    O    0.03741   0.55361   0.37166   1.000
    O149    O    0.03709   0.03709   0.37168   1.000
    O150    O    0.16990   0.16996   0.40448   1.000
    O151    O    0.25596   0.17001   0.40454   1.000
    O152    O    0.16995   0.25600   0.40457   1.000
    O153    O    0.12206   0.12210   0.40872   1.000
    O154    O    0.08229   0.08231   0.41760   1.000
    O155    O    0.34718   0.12224   0.40882   1.000
    O156    O    0.41773   0.08244   0.41769   1.000
    O157    O    0.12219   0.34719   0.40890   1.000
    O158    O    0.08242   0.41773   0.41775   1.000
    O159    O    0.49273   0.04020   0.42702   1.000
    O160    O    0.56572   0.99997   0.43428   1.000
    O161    O    0.04020   0.49272   0.42703   1.000
    O162    O    1.00000   0.56569   0.43430   1.000
    O163    O    0.04003   0.04004   0.42698   1.000
    O164    O    0.99979   0.99978   0.43436   1.000
    O165    O    0.96258   0.62832   0.44639   1.000
    O166    O    0.62836   0.96251   0.44640   1.000
    O167    O    0.96235   0.96231   0.44653   1.000
    O168    O    0.04024   0.04024   0.49262   1.000
    O169    O    0.42701   0.04020   0.49269   1.000
    O170    O    0.04020   0.42700   0.49270   1.000
    O171    O    0.57299   0.95975   0.50725   1.000
    O172    O    0.95979   0.57295   0.50727   1.000
    O173    O    0.95976   0.95971   0.50739   1.000
    O174    O    0.03765   0.03765   0.55348   1.000
    O175    O    0.00021   0.00018   0.56566   1.000
    O176    O    0.03741   0.37164   0.55358   1.000
    O177    O    0.00000   0.43427   0.56568   1.000
    O178    O    0.37163   0.03745   0.55356   1.000
    O179    O    0.43427   0.99999   0.56568   1.000
    O180    O    0.50726   0.95976   0.57298   1.000
    O181    O    0.58227   0.91752   0.58225   1.000
    O182    O    0.95980   0.50724   0.57298   1.000
    O183    O    0.91757   0.58223   0.58226   1.000
    O184    O    0.95997   0.95991   0.57303   1.000
    O185    O    0.91771   0.91765   0.58242   1.000
    O186    O    0.87780   0.65277   0.59111   1.000
    O187    O    0.83005   0.74396   0.59545   1.000
    O188    O    0.65282   0.87772   0.59114   1.000
    O189    O    0.74404   0.82995   0.59547   1.000
    O190    O    0.87794   0.87786   0.59130   1.000
    O191    O    0.83010   0.83000   0.59553   1.000
    O192    O    0.96291   0.96286   0.62833   1.000
    O193    O    0.96259   0.44635   0.62835   1.000
    O194    O    0.44637   0.96254   0.62833   1.000
    O195    O    0.87780   0.59108   0.65280   1.000
    O196    O    0.59112   0.87772   0.65280   1.000
    O197    O    0.87807   0.87799   0.65300   1.000
    O198    O    0.77169   0.77162   0.68480   1.000
    O199    O    0.59543   0.82998   0.74404   1.000
    O200    O    0.83004   0.59541   0.74400   1.000
    O201    O    0.83036   0.83033   0.74430   1.000
    O202    O    0.77169   0.68476   0.77166   1.000
    O203    O    0.74404   0.59543   0.82998   1.000
    O204    O    0.83009   0.59550   0.83004   1.000
    O205    O    0.59542   0.74401   0.83004   1.000
    O206    O    0.59548   0.83006   0.83012   1.000
    O207    O    0.83036   0.74426   0.83037   1.000
    O208    O    0.74426   0.83035   0.83039   1.000
    O209    O    0.65281   0.59112   0.87777   1.000
    O210    O    0.59112   0.65280   0.87778   1.000
    O211    O    0.87794   0.59126   0.87791   1.000
    O212    O    0.59124   0.87791   0.87796   1.000
    O213    O    0.87807   0.65296   0.87804   1.000
    O214    O    0.65297   0.87803   0.87808   1.000
    O215    O    0.58226   0.58226   0.91756   1.000
    O216    O    0.91771   0.58238   0.91766   1.000
    O217    O    0.58238   0.91768   0.91773   1.000
    O218    O    0.57299   0.50726   0.95980   1.000
    O219    O    0.50726   0.57296   0.95981   1.000
    O220    O    0.95976   0.50735   0.95973   1.000
    O221    O    0.95996   0.57300   0.95994   1.000
    O222    O    0.50735   0.95973   0.95979   1.000
    O223    O    0.57303   0.95992   0.95998   1.000
    O224    O    0.96235   0.44650   0.96236   1.000
    O225    O    0.44646   0.96234   0.96240   1.000
    O226    O    0.62837   0.44639   0.96258   1.000
    O227    O    0.44637   0.62831   0.96261   1.000
    O228    O    0.96291   0.62830   0.96292   1.000
    O229    O    0.62836   0.96286   0.96292   1.000
    O230    O    0.31523   0.22830   0.22831   1.000
    O231    O    0.22817   0.22814   0.22815   1.000
    O232    O    0.68477   0.77166   0.77170   1.000
    O233    O    0.77183   0.77182   0.77186   1.000
loop_
    _geom_bond_atom_site_label_1
    _geom_bond_atom_site_label_2
    _geom_bond_distance
    _geom_bond_site_symmetry_2
    _ccdc_geom_bond_type
    C43    O106      0.54427      .   S
    C19    O106      0.54427      .   S
    C43    O107      0.70198      .   S
    C67    O107      0.70198      .   S
    C43    O108      0.69508  1_544   S
    C44    O108      0.69508      .   S
    C34    O109      0.54429      .   S
    C10    O109      0.54429      .   S
    C34    O110      0.70162      .   S
    C57    O110      0.70162      .   S
    C34    O111      0.69508  1_454   S
    C53    O111      0.69508      .   S
    C37    O112      0.54429      .   S
    C13    O112      0.54429      .   S
    C37    O113      0.70159      .   S
    C63    O113      0.70159      .   S
    C37    O114      0.69508      .   S
    C49    O114      0.69508  1_556   S
    C39    O115      0.54429      .   S
    C15    O115      0.54429      .   S
    C39    O116      0.70158      .   S
    C63    O116      0.70158      .   S
    C39    O117      0.69508      .   S
    C51    O117      0.69508  1_556   S
    C41    O118      0.54433      .   S
    C17    O118      0.54433      .   S
    C41    O119      0.70167      .   S
    C67    O119      0.70167      .   S
    C41    O120      0.69533      .   S
    C46    O120      0.69533  1_566   S
    C32    O121      0.54430      .   S
    C8     O121      0.54430      .   S
    C32    O122      0.70165      .   S
    C57    O122      0.70165      .   S
    C32    O123      0.69508      .   S
    C55    O123      0.69508  1_656   S
    C67    O124      0.74796      .   S
    C66    O124      0.74796      .   S
    C57    O125      0.74791      .   S
    C56    O125      0.74791      .   S
    C63    O126      0.74768      .   S
    C62    O126      0.74768      .   S
    C66    O127      0.63866      .   S
    C93    O127      0.63866      .   S
    C66    O128      0.63858      .   S
    C91    O128      0.63858      .   S
    C56    O129      0.63865      .   S
    C84    O129      0.63865      .   S
    C56    O130      0.63851      .   S
    C82    O130      0.63851      .   S
    C62    O131      0.63855      .   S
    C87    O131      0.63855      .   S
    C62    O132      0.63857      .   S
    C89    O132      0.63857      .   S
    C93    O133      0.98668      .   S
    C2     O133      0.98668      .   S
    C84    O134      0.98646      .   S
    C2     O134      0.98646      .   S
    C91    O135      0.98612      .   S
    C1     O135      0.98612      .   S
    C82    O136      0.98594      .   S
    C0     O136      0.98594      .   S
    C87    O137      0.98581      .   S
    C1     O137      0.98581      .   S
    C89    O138      0.98581      .   S
    C0     O138      0.98581      .   S
    C2     O139      0.98648      .   S
    C86    O139      0.98648      .   S
    C1     O140      0.98524      .   S
    C83    O140      0.98524      .   S
    C0     O141      0.98346      .   S
    C80    O141      0.98346      .   S
    C0     O142      0.98596      .   S
    C92    O142      0.98596      .   S
    C80    O143      0.98349      .   S
    C3     O143      0.98349      .   S
    C86    O144      0.63867      .   S
    C60    O144      0.63867      .   S
    C83    O145      0.63869      .   S
    C58    O145      0.63869      .   S
    C92    O146      0.63859      .   S
    C64    O146      0.63859      .   S
    C9     O147      0.54479      .   S
    C33    O147      0.54479      .   S
    C18    O148      0.54434      .   S
    C42    O148      0.54434      .   S
    C12    O149      0.54432      .   S
    C36    O149      0.54432      .   S
    C3     O150      0.98592      .   S
    C88    O150      0.98592      .   S
    C3     O151      0.98578      .   S
    C85    O151      0.98578      .   S
    C3     O152      0.98592      .   S
    C90    O152      0.98592      .   S
    C60    O153      0.63858      .   S
    C88    O153      0.63858      .   S
    C60    O154      0.74789      .   S
    C61    O154      0.74789      .   S
    C58    O155      0.63863      .   S
    C85    O155      0.63863      .   S
    C58    O156      0.74805      .   S
    C59    O156      0.74805      .   S
    C64    O157      0.63856      .   S
    C90    O157      0.63856      .   S
    C64    O158      0.74776      .   S
    C65    O158      0.74776      .   S
    C33    O159      0.70159      .   S
    C59    O159      0.70159      .   S
    C33    O160      0.69477  1_545   S
    C52    O160      0.69477      .   S
    C42    O161      0.70160      .   S
    C65    O161      0.70160      .   S
    C42    O162      0.69516  1_455   S
    C47    O162      0.69516      .   S
    C36    O163      0.70156      .   S
    C61    O163      0.70156      .   S
    C36    O164      0.69545  1_445   S
    C50    O164      0.69545      .   S
    C23    O165      0.54429      .   S
    C47    O165      0.54429      .   S
    C28    O166      0.54427      .   S
    C52    O166      0.54427      .   S
    C26    O167      0.54426      .   S
    C50    O167      0.54426      .   S
    C61    O168      0.70169      .   S
    C38    O168      0.70169      .   S
    C59    O169      0.70114      .   S
    C35    O169      0.70114      .   S
    C65    O170      0.70097      .   S
    C40    O170      0.70097      .   S
    C52    O171      0.70172      .   S
    C77    O171      0.70172      .   S
    C47    O172      0.70155      .   S
    C71    O172      0.70155      .   S
    C50    O173      0.70169      .   S
    C73    O173      0.70169      .   S
    C38    O174      0.54427      .   S
    C14    O174      0.54427      .   S
    C38    O175      0.69544      .   S
    C48    O175      0.69544  1_665   S
    C40    O176      0.54435      .   S
    C16    O176      0.54435      .   S
    C40    O177      0.69568      .   S
    C45    O177      0.69568  1_655   S
    C35    O178      0.54433      .   S
    C11    O178      0.54433      .   S
    C35    O179      0.69549  1_545   S
    C54    O179      0.69549      .   S
    C77    O180      0.70161      .   S
    C54    O180      0.70161      .   S
    C77    O181      0.74754      .   S
    C76    O181      0.74754      .   S
    C71    O182      0.70159      .   S
    C45    O182      0.70159      .   S
    C71    O183      0.74770      .   S
    C70    O183      0.74770      .   S
    C73    O184      0.70156      .   S
    C48    O184      0.70156      .   S
    C73    O185      0.74788      .   S
    C72    O185      0.74788      .   S
    C97    O186      0.63855      .   S
    C70    O186      0.63855      .   S
    C97    O187      0.98592      .   S
    C7     O187      0.98592      .   S
    C102   O188      0.63849      .   S
    C76    O188      0.63849      .   S
    C102   O189      0.98578      .   S
    C7     O189      0.98578      .   S
    C100   O190      0.63858      .   S
    C72    O190      0.63858      .   S
    C100   O191      0.98592      .   S
    C7     O191      0.98592      .   S
    C48    O192      0.54432      .   S
    C24    O192      0.54432      .   S
    C45    O193      0.54434      .   S
    C21    O193      0.54434      .   S
    C54    O194      0.54399      .   S
    C30    O194      0.54399      .   S
    C70    O195      0.63866      .   S
    C95    O195      0.63866      .   S
    C76    O196      0.63870      .   S
    C104   O196      0.63870      .   S
    C72    O197      0.63867      .   S
    C98    O197      0.63867      .   S
    C7     O198      0.98349      .   S
    C81    O198      0.98349      .   S
    C104   O199      0.98606      .   S
    C4     O199      0.98606      .   S
    C95    O200      0.98597      .   S
    C5     O200      0.98597      .   S
    C98    O201      0.98648      .   S
    C6     O201      0.98648      .   S
    C81    O202      0.98346      .   S
    C5     O202      0.98346      .   S
    C5     O203      0.98581      .   S
    C99    O203      0.98581      .   S
    C5     O204      0.98595      .   S
    C103   O204      0.98595      .   S
    C4     O205      0.98581      .   S
    C101   O205      0.98581      .   S
    C4     O206      0.98612      .   S
    C94    O206      0.98612      .   S
    C6     O207      0.98646      .   S
    C105   O207      0.98646      .   S
    C6     O208      0.98667      .   S
    C96    O208      0.98667      .   S
    C99    O209      0.63856      .   S
    C74    O209      0.63856      .   S
    C101   O210      0.63856      .   S
    C74    O210      0.63856      .   S
    C103   O211      0.63850      .   S
    C78    O211      0.63850      .   S
    C94    O212      0.63857      .   S
    C68    O212      0.63857      .   S
    C105   O213      0.63865      .   S
    C78    O213      0.63865      .   S
    C96    O214      0.63866      .   S
    C68    O214      0.63866      .   S
    C74    O215      0.74767      .   S
    C75    O215      0.74767      .   S
    C78    O216      0.74748      .   S
    C79    O216      0.74748      .   S
    C68    O217      0.74796      .   S
    C69    O217      0.74796      .   S
    C75    O218      0.70158      .   S
    C49    O218      0.70158      .   S
    C75    O219      0.70159      .   S
    C51    O219      0.70159      .   S
    C79    O220      0.70160      .   S
    C53    O220      0.70160      .   S
    C79    O221      0.70211      .   S
    C55    O221      0.70211      .   S
    C69    O222      0.70167      .   S
    C44    O222      0.70167      .   S
    C69    O223      0.70168      .   S
    C46    O223      0.70168      .   S
    C29    O224      0.54431      .   S
    C53    O224      0.54431      .   S
    C20    O225      0.54431      .   S
    C44    O225      0.54431      .   S
    C25    O226      0.54429      .   S
    C49    O226      0.54429      .   S
    C27    O227      0.54429      .   S
    C51    O227      0.54429      .   S
    C31    O228      0.54429      .   S
    C55    O228      0.54429      .   S
    C22    O229      0.54431      .   S
    C46    O229      0.54431      .   S
    C80    O230      0.98352      .   S
    C1     O230      0.98352      .   S
    C80    O231      0.98414      .   S
    C2     O231      0.98414      .   S
    C81    O232      0.98352      .   S
    C4     O232      0.98352      .   S
    C81    O233      0.98414      .   S
    C6     O233      0.98414      .   S
