# CIF file generated by openbabel 2.4.90, see http://openbabel.sf.net
data_I
_chemical_name_common ''
_cell_length_a 10.816
_cell_length_b 15.94
_cell_length_c 18.497
_cell_angle_alpha 114.393
_cell_angle_beta 107.119
_cell_angle_gamma 93.922
_space_group_name_H-M_alt 'P 1'
_space_group_name_Hall 'P 1'
loop_
    _symmetry_equiv_pos_as_xyz
    x,y,z
loop_
    _atom_site_label
    _atom_site_type_symbol
    _atom_site_fract_x
    _atom_site_fract_y
    _atom_site_fract_z
    _atom_site_occupancy
    Mc0     Mc   0.78342   0.29589   0.02997   1.000
    Mc1     Mc   0.37374   0.34383   0.03867   1.000
    Mc2     Mc   0.34908   0.96151   0.65719   1.000
    Mc3     Mc   0.37698   0.35439   0.67137   1.000
    Mc4     Mc   0.62300   0.64564   0.32874   1.000
    Mc5     Mc   0.65089   0.03721   0.34293   1.000
    Mc6     Mc   0.62622   0.65620   0.96146   1.000
    Mc7     Mc   0.21656   0.70413   0.96880   1.000
