# CIF file generated by openbabel 2.4.90, see http://openbabel.sf.net
data_I
_chemical_name_common ''
_cell_length_a 10.816
_cell_length_b 15.94
_cell_length_c 18.497
_cell_angle_alpha 114.393
_cell_angle_beta 107.119
_cell_angle_gamma 93.922
_space_group_name_H-M_alt 'P 1'
_space_group_name_Hall 'P 1'
loop_
    _symmetry_equiv_pos_as_xyz
    x,y,z
loop_
    _atom_site_label
    _atom_site_type_symbol
    _atom_site_fract_x
    _atom_site_fract_y
    _atom_site_fract_z
    _atom_site_occupancy
    Cd0     Cd   0.19257   0.51112   0.36795   1.000
    Cd1     Cd   0.92940   0.38277   0.42617   1.000
    Cd2     Cd   0.80741   0.48892   0.63219   1.000
    H3      H    0.56822   0.31516   0.62430   1.000
    H4      H    0.41135   0.49766   0.03734   1.000
    H5      H    0.66204   0.36230   0.92738   1.000
    H6      H    0.68866   0.29506   0.83072   1.000
    H7      H    0.12826   0.97965   0.66990   1.000
    H8      H    0.42662   0.36306   0.83650   1.000
    H9      H    0.31862   0.25176   0.75829   1.000
    H10     H    0.80702   0.17425   0.13733   1.000
    H11     H    0.25629   0.36877   0.72861   1.000
    H12     H    0.72877   0.12711   0.98131   1.000
    H13     H    0.52817   0.98737   0.67010   1.000
    H14     H    0.06298   0.81046   0.56234   1.000
    H15     H    0.84022   0.41818   0.03745   1.000
    H16     H    0.92334   0.46342   0.19144   1.000
    H17     H    0.50754   0.20762   0.94010   1.000
    H18     H    0.34431   0.19978   0.87396   1.000
    H19     H    0.47029   0.38574   0.52920   1.000
    H20     H    0.37681   0.21791   0.01866   1.000
    H21     H    0.46125   0.81988   0.56238   1.000
    H22     H    0.28812   0.26911   0.13634   1.000
    H23     H    0.55699   0.10379   0.80467   1.000
    H24     H    0.52696   0.14003   0.72242   1.000
    H25     H    0.31677   0.54661   0.15451   1.000
    H26     H    0.15888   0.43680   0.63280   1.000
    H27     H    0.43176   0.68485   0.37582   1.000
    H28     H    0.58865   0.50238   0.96280   1.000
    H29     H    0.33793   0.63774   0.07275   1.000
    H30     H    0.31130   0.70498   0.16940   1.000
    H31     H    0.87170   0.02038   0.33020   1.000
    Cd32    Cd   0.07059   0.61723   0.57390   1.000
    H33     H    0.57335   0.63699   0.16359   1.000
    H34     H    0.68135   0.74830   0.24184   1.000
    H35     H    0.19304   0.82575   0.86278   1.000
    H36     H    0.74369   0.63127   0.27151   1.000
    H37     H    0.27126   0.87290   0.00000   1.000
    H38     H    0.47179   0.00000   0.32996   1.000
    H39     H    0.93701   0.18957   0.43778   1.000
    H40     H    0.15973   0.58184   0.96267   1.000
    H41     H    0.07663   0.53659   0.80868   1.000
    H42     H    0.49243   0.79242   0.05999   1.000
    H43     H    0.65565   0.80026   0.12617   1.000
    H44     H    0.52970   0.61425   0.47090   1.000
    H45     H    0.62312   0.78211   0.98145   1.000
    H46     H    0.53874   0.18018   0.43775   1.000
    H47     H    0.71182   0.73090   0.86377   1.000
    H48     H    0.44296   0.89625   0.19546   1.000
    H49     H    0.47301   0.86001   0.27771   1.000
    H50     H    0.68324   0.45343   0.84565   1.000
    H51     H    0.84111   0.56323   0.36730   1.000
    C52     C    0.47814   0.34131   0.62523   1.000
    C53     C    0.38276   0.44832   0.05946   1.000
    C54     C    0.65102   0.29071   0.87832   1.000
    C55     C    0.20052   0.94355   0.64635   1.000
    C56     C    0.42271   0.29102   0.79067   1.000
    C57     C    0.81457   0.22676   0.11460   1.000
    C58     C    0.30325   0.37127   0.68480   1.000
    C59     C    0.77032   0.20062   0.02835   1.000
    C60     C    0.42623   0.94944   0.64712   1.000
    C61     C    0.16511   0.84924   0.58689   1.000
    C62     C    0.83147   0.36467   0.05896   1.000
    C63     C    0.87829   0.39007   0.14543   1.000
    C64     C    0.44761   0.24016   0.90397   1.000
    C65     C    0.42370   0.38099   0.57258   1.000
    C66     C    0.36401   0.29002   0.04772   1.000
    C67     C    0.50297   0.23990   0.83626   1.000
    C68     C    0.33166   0.99424   0.67716   1.000
    C69     C    0.29590   0.41069   0.15206   1.000
    C70     C    0.38892   0.85512   0.58658   1.000
    C71     C    0.41765   0.33585   0.68121   1.000
    C72     C    0.24641   0.44219   0.22430   1.000
    C73     C    0.77572   0.26975   0.00020   1.000
    C74     C    0.31369   0.31848   0.11352   1.000
    C75     C    0.49331   0.13825   0.77257   1.000
    C76     C    0.86799   0.32195   0.17420   1.000
    C77     C    0.24638   0.45453   0.51612   1.000
    C78     C    0.30739   0.41530   0.57425   1.000
    C79     C    0.33046   0.47504   0.12376   1.000
    C80     C    0.24837   0.40998   0.63088   1.000
    C81     C    0.39962   0.35553   0.02113   1.000
    C82     C    0.22303   0.70302   0.49223   1.000
    C83     C    0.25886   0.80355   0.55610   1.000
    C84     C    0.90572   0.34973   0.26572   1.000
    C85     C    0.52186   0.65873   0.37490   1.000
    C86     C    0.61723   0.55172   0.94068   1.000
    C87     C    0.34894   0.70932   0.12181   1.000
    C88     C    0.79944   0.05649   0.35377   1.000
    C89     C    0.57726   0.70903   0.20946   1.000
    C90     C    0.18547   0.77325   0.88551   1.000
    C91     C    0.69675   0.62879   0.31533   1.000
    C92     C    0.22969   0.79939   0.97176   1.000
    C93     C    0.57374   0.05062   0.35300   1.000
    C94     C    0.83487   0.15080   0.41324   1.000
    C95     C    0.16849   0.63536   0.94116   1.000
    C96     C    0.12169   0.60995   0.85469   1.000
    C97     C    0.55235   0.75988   0.09616   1.000
    C98     C    0.57627   0.61900   0.42750   1.000
    C99     C    0.63594   0.71001   0.95241   1.000
    C100    C    0.49699   0.76014   0.16380   1.000
    C101    C    0.66830   0.00000   0.32296   1.000
    C102    C    0.70406   0.58933   0.84808   1.000
    C103    C    0.61107   0.14493   0.41355   1.000
    C104    C    0.58230   0.66416   0.31889   1.000
    C105    C    0.75356   0.55783   0.77583   1.000
    C106    C    0.22427   0.73027   0.99984   1.000
    C107    C    0.68626   0.68155   0.88660   1.000
    C108    C    0.50664   0.86179   0.22756   1.000
    C109    C    0.13202   0.67806   0.82591   1.000
    C110    C    0.75360   0.54544   0.48394   1.000
    C111    C    0.69262   0.58473   0.42586   1.000
    C112    C    0.66952   0.52500   0.87639   1.000
    C113    C    0.75160   0.59003   0.36920   1.000
    C114    C    0.60035   0.64450   0.97901   1.000
    C115    C    0.77699   0.29702   0.50791   1.000
    C116    C    0.74112   0.19649   0.44396   1.000
    C117    C    0.09431   0.65028   0.73439   1.000
    O118    O    0.35794   0.08658   0.73603   1.000
    O119    O    0.96950   0.43372   0.32227   1.000
    O120    O    0.72851   0.23766   0.91383   1.000
    O121    O    0.30201   0.46532   0.46869   1.000
    O122    O    0.13073   0.47610   0.51577   1.000
    O123    O    0.45343   0.33670   0.95885   1.000
    O124    O    0.86678   0.28917   0.28818   1.000
    O125    O    0.47765   0.29437   0.72986   1.000
    O126    O    0.24234   0.39018   0.26114   1.000
    O127    O    0.11361   0.64874   0.47746   1.000
    O128    O    0.29816   0.67026   0.45144   1.000
    O129    O    0.21323   0.52231   0.24920   1.000
    O130    O    0.64202   0.91346   0.26409   1.000
    O131    O    0.00000   0.56630   0.67784   1.000
    O132    O    0.27145   0.76237   0.08628   1.000
    O133    O    0.69799   0.53466   0.53139   1.000
    O134    O    0.86927   0.52391   0.48430   1.000
    O135    O    0.54653   0.66334   0.04128   1.000
    O136    O    0.13329   0.71083   0.71194   1.000
    O137    O    0.52233   0.70568   0.27028   1.000
    O138    O    0.75760   0.60983   0.73898   1.000
    O139    O    0.88641   0.35129   0.52267   1.000
    O140    O    0.70188   0.32979   0.54871   1.000
    O141    O    0.78675   0.47772   0.75094   1.000
loop_
    _geom_bond_atom_site_label_1
    _geom_bond_atom_site_label_2
    _geom_bond_distance
    _geom_bond_site_symmetry_2
    _ccdc_geom_bond_type
    H37    C92       1.06402  1_554   S
    C73    C59       1.40419      .   S
    C73    C62       1.40183      .   S
    C73    O120      1.37248  1_554   S
    H20    C66       1.08841      .   S
    C81    C66       1.40054      .   S
    C81    C53       1.40365      .   S
    C81    O123      1.37438  1_554   S
    C59    C57       1.38637      .   S
    C59    H12       1.08983  1_554   S
    H4     C53       1.09023      .   S
    H15    C62       1.08920      .   S
    O135   C97       1.43579      .   S
    O135   C114      1.37424  1_554   S
    C66    C74       1.39679      .   S
    C62    C63       1.39241      .   S
    C53    C79       1.38799      .   S
    H42    C97       1.10187      .   S
    H29    C87       1.09646      .   S
    O132   C87       1.44255      .   S
    O132   C106      1.37363  1_554   S
    C97    H43       1.10097      .   S
    C97    C100      1.53657      .   S
    C74    H22       1.08954      .   S
    C74    C69       1.39989      .   S
    C57    H10       1.08887      .   S
    C57    C76       1.40530      .   S
    C87    C100      1.54727      .   S
    C87    H30       1.09677      .   S
    C79    C69       1.40424      .   S
    C79    H25       1.08799      .   S
    C63    C76       1.40360      .   S
    C63    H16       1.08855      .   S
    C69    C72       1.49265      .   S
    H33    C89       1.09901      .   S
    C100   C89       1.53762      .   S
    C100   C108      1.53401      .   S
    C76    C84       1.47573      .   S
    H48    C108      1.09959      .   S
    C89    H34       1.10230      .   S
    C89    O137      1.43532      .   S
    C72    O129      1.28299      .   S
    C72    O126      1.27779      .   S
    C108   O130      1.43932      .   S
    C108   H49       1.10120      .   S
    O129   Cd0       2.34811      .   S
    O126   Cd0       2.35194      .   S
    O130   C101      1.30106  1_565   S
    C84    O124      1.28860      .   S
    C84    O119      1.28628      .   S
    O137   C104      1.36901      .   S
    H36    C91       1.08735      .   S
    O124   Cd1       2.21315      .   S
    C91    C104      1.40258      .   S
    C91    C113      1.39186      .   S
    C104   C85       1.40477      .   S
    O119   Cd0       2.36409  1_655   S
    C101   C93       1.44324      .   S
    C101   C88       1.43980      .   S
    H38    C93       1.16884      .   S
    H31    C88       1.08950      .   S
    C93    C103      1.39195      .   S
    C88    C94       1.38704      .   S
    H51    C113      1.08860      .   S
    Cd0    O128      2.33528      .   S
    Cd0    O121      2.31293      .   S
    C113   C111      1.40421      .   S
    C85    H27       1.08751      .   S
    C85    C98       1.38453      .   S
    C94    H39       1.08998      .   S
    C94    C116      1.40711      .   S
    C103   H46       1.08928      .   S
    C103   C116      1.40171      .   S
    C111   C98       1.40909      .   S
    C111   C110      1.47531      .   S
    Cd1    O122      2.25778  1_655   S
    Cd1    O139      2.20235      .   S
    C98    H44       1.08944      .   S
    C116   C115      1.48211      .   S
    O128   C82       1.26326      .   S
    O121   C77       1.25799      .   S
    O127   C82       1.30315      .   S
    O127   Cd32      2.20171      .   S
    C110   O134      1.31866      .   S
    C110   O133      1.25807      .   S
    O134   Cd32      2.25762  1_655   S
    C82    C83       1.48177      .   S
    C115   O139      1.30315      .   S
    C115   O140      1.26323      .   S
    O122   C77       1.31866      .   S
    C77    C78       1.47536      .   S
    H19    C65       1.08929      .   S
    O133   Cd2       2.31311      .   S
    O140   Cd2       2.33510      .   S
    C83    C70       1.40155      .   S
    C83    C61       1.40760      .   S
    H14    C61       1.08998      .   S
    H21    C70       1.08927      .   S
    C65    C78       1.40912      .   S
    C65    C52       1.38466      .   S
    Cd32   O136      2.21381      .   S
    C78    C80       1.40411      .   S
    C70    C60       1.39194      .   S
    C61    C55       1.38703      .   S
    H3     C52       1.08752      .   S
    C52    C71       1.40478      .   S
    C80    H26       1.08864      .   S
    C80    C58       1.39203      .   S
    Cd2    O131      2.07992  1_655   S
    Cd2    O138      2.35170      .   S
    Cd2    O141      2.34821      .   S
    C55    H7        1.08937      .   S
    C55    C68       1.40588      .   S
    C60    H13       1.08754      .   S
    C60    C68       1.40419      .   S
    C68    O118      1.36740  1_565   S
    O131   C117      1.39825      .   S
    C71    C58       1.40260      .   S
    C71    O125      1.36910      .   S
    C58    H11       1.08742      .   S
    O136   C117      1.28848      .   S
    H24    C75       1.10126      .   S
    O125   C56       1.43525      .   S
    C117   C109      1.47574      .   S
    O118   C75       1.43933      .   S
    O138   C105      1.27778      .   S
    O141   C105      1.28297      .   S
    H9     C56       1.10230      .   S
    C75    H23       1.09960      .   S
    C75    C67       1.53358      .   S
    C105   C102      1.49279      .   S
    C56    C67       1.53687      .   S
    C56    H8        1.09876      .   S
    H41    C96       1.08857      .   S
    C109   C96       1.40368      .   S
    C109   C90       1.40531      .   S
    H6     C54       1.09693      .   S
    C67    C54       1.54725      .   S
    C67    C64       1.53777      .   S
    H50    C112      1.08799      .   S
    C102   C112      1.40420      .   S
    C102   C107      1.39987      .   S
    C96    C95       1.39238      .   S
    H35    C90       1.08883      .   S
    H47    C107      1.08956      .   S
    H18    C64       1.10097      .   S
    C112   C86       1.38782      .   S
    C54    O120      1.44243      .   S
    C54    H5        1.09642      .   S
    C90    C92       1.38635      .   S
    C107   C99       1.39693      .   S
    C64    H17       1.10143      .   S
    C64    O123      1.43576      .   S
    C86    H28       1.09010      .   S
    C86    C114      1.40367      .   S
    C95    H40       1.08917      .   S
    C95    C106      1.40153      .   S
    C99    C114      1.40054      .   S
    C99    H45       1.08839      .   S
    C92    C106      1.40321      .   S
    O119   Cd1       2.50458      .   S
    O122   Cd32      2.29215      .   S
    O134   Cd1       2.29233      .   S
