# CIF file generated by openbabel 2.4.90, see http://openbabel.sf.net
data_I
_chemical_name_common ''
_cell_length_a 10.816
_cell_length_b 15.94
_cell_length_c 18.497
_cell_angle_alpha 114.393
_cell_angle_beta 107.119
_cell_angle_gamma 93.922
_space_group_name_H-M_alt 'P 1'
_space_group_name_Hall 'P 1'
loop_
    _symmetry_equiv_pos_as_xyz
    x,y,z
loop_
    _atom_site_label
    _atom_site_type_symbol
    _atom_site_fract_x
    _atom_site_fract_y
    _atom_site_fract_z
    _atom_site_occupancy
    Cd0     Cd   0.19257   0.51112   0.36795   1.000
    Cd1     Cd   0.92940   0.38277   0.42617   1.000
    Cd2     Cd   0.80741   0.48892   0.63219   1.000
    Cd3     Cd   0.07059   0.61723   0.57390   1.000
    C4      C    0.24641   0.44219   0.22430   1.000
    C5      C    0.24638   0.45453   0.51612   1.000
    C6      C    0.22303   0.70302   0.49223   1.000
    C7      C    0.90572   0.34973   0.26572   1.000
    C8      C    0.75356   0.55783   0.77583   1.000
    C9      C    0.75360   0.54544   0.48394   1.000
    C10     C    0.77699   0.29702   0.50791   1.000
    C11     C    0.09431   0.65028   0.73439   1.000
    O12     O    0.96950   0.43372   0.32227   1.000
    O13     O    0.30201   0.46532   0.46869   1.000
    O14     O    0.13073   0.47610   0.51577   1.000
    O15     O    0.86678   0.28917   0.28818   1.000
    O16     O    0.24234   0.39018   0.26114   1.000
    O17     O    0.11361   0.64874   0.47746   1.000
    O18     O    0.29816   0.67026   0.45144   1.000
    O19     O    0.21323   0.52231   0.24920   1.000
    O20     O    0.00000   0.56630   0.67784   1.000
    O21     O    0.69799   0.53466   0.53139   1.000
    O22     O    0.86927   0.52391   0.48430   1.000
    O23     O    0.13329   0.71083   0.71194   1.000
    O24     O    0.75760   0.60983   0.73898   1.000
    O25     O    0.88641   0.35129   0.52267   1.000
    O26     O    0.70188   0.32979   0.54871   1.000
    O27     O    0.78675   0.47772   0.75094   1.000
    Og28    Og   0.26290   0.43169   0.20022   1.000
    Og29    Og   0.26672   0.44145   0.53550   1.000
    Og30    Og   0.23497   0.73653   0.51352   1.000
    Og31    Og   0.89315   0.34047   0.23521   1.000
    Og32    Og   0.73706   0.56833   0.79991   1.000
    Og33    Og   0.73327   0.55854   0.46458   1.000
    Og34    Og   0.76503   0.26351   0.48659   1.000
    Og35    Og   0.10688   0.65954   0.76490   1.000
loop_
    _geom_bond_atom_site_label_1
    _geom_bond_atom_site_label_2
    _geom_bond_distance
    _geom_bond_site_symmetry_2
    _ccdc_geom_bond_type
    C4     O19       1.28299      .   S
    C4     O16       1.27779      .   S
    O19    Cd0       2.34811      .   S
    O16    Cd0       2.35194      .   S
    C7     O15       1.28860      .   S
    C7     O12       1.28628      .   S
    O15    Cd1       2.21315      .   S
    O12    Cd0       2.36409  1_655   S
    Cd0    O18       2.33528      .   S
    Cd0    O13       2.31293      .   S
    Cd1    O14       2.25778  1_655   S
    Cd1    O25       2.20235      .   S
    O18    C6        1.26326      .   S
    O13    C5        1.25799      .   S
    O17    C6        1.30315      .   S
    O17    Cd3       2.20171      .   S
    C9     O22       1.31866      .   S
    C9     O21       1.25807      .   S
    O22    Cd3       2.25762  1_655   S
    C10    O25       1.30315      .   S
    C10    O26       1.26323      .   S
    O14    C5        1.31866      .   S
    O21    Cd2       2.31311      .   S
    O26    Cd2       2.33510      .   S
    Cd3    O23       2.21381      .   S
    Cd2    O20       2.07992  1_655   S
    Cd2    O24       2.35170      .   S
    Cd2    O27       2.34821      .   S
    O20    C11       1.39825      .   S
    O23    C11       1.28848      .   S
    O24    C8        1.27778      .   S
    O27    C8        1.28297      .   S
    O12    Cd1       2.50458      .   S
    O14    Cd3       2.29215      .   S
    O22    Cd1       2.29233      .   S
    C4     Og28      0.49755      .   S
    C5     Og29      0.49179      .   S
    C6     Og30      0.49392      .   S
    C7     Og31      0.49191      .   S
    C8     Og32      0.49760      .   S
    C9     Og33      0.49177      .   S
    C10    Og34      0.49404      .   S
    C11    Og35      0.49191      .   S
