# CIF file generated by openbabel 2.4.90, see http://openbabel.sf.net
data_I
_chemical_name_common ''
_cell_length_a 10.816
_cell_length_b 15.94
_cell_length_c 18.497
_cell_angle_alpha 114.393
_cell_angle_beta 107.119
_cell_angle_gamma 93.922
_space_group_name_H-M_alt 'P 1'
_space_group_name_Hall 'P 1'
loop_
    _symmetry_equiv_pos_as_xyz
    x,y,z
loop_
    _atom_site_label
    _atom_site_type_symbol
    _atom_site_fract_x
    _atom_site_fract_y
    _atom_site_fract_z
    _atom_site_occupancy
    C0      C    0.24641   0.44219   0.22430   1.000
    C1      C    0.24638   0.45453   0.51612   1.000
    C2      C    0.22303   0.70302   0.49223   1.000
    C3      C    0.90572   0.34973   0.26572   1.000
    C4      C    0.75356   0.55783   0.77583   1.000
    C5      C    0.75360   0.54544   0.48394   1.000
    C6      C    0.77699   0.29702   0.50791   1.000
    C7      C    0.09431   0.65028   0.73439   1.000
