# CIF file generated by openbabel 2.4.90, see http://openbabel.sf.net
data_I
_chemical_name_common ''
_cell_length_a 10.816
_cell_length_b 15.94
_cell_length_c 18.497
_cell_angle_alpha 114.393
_cell_angle_beta 107.119
_cell_angle_gamma 93.922
_space_group_name_H-M_alt 'P 1'
_space_group_name_Hall 'P 1'
loop_
    _symmetry_equiv_pos_as_xyz
    x,y,z
loop_
    _atom_site_label
    _atom_site_type_symbol
    _atom_site_fract_x
    _atom_site_fract_y
    _atom_site_fract_z
    _atom_site_occupancy
    N0      N    0.50297   0.23990   0.83626   1.000
    N1      N    0.49699   0.76014   0.16380   1.000
    Zr2     Zr   0.99891   0.50001   0.50006   1.000
    O3      O    0.16068   0.44257   0.30674   1.000
    O4      O    0.91703   0.40794   0.31251   1.000
    O5      O    0.83821   0.55745   0.69338   1.000
    O6      O    0.08189   0.59208   0.68727   1.000
    O7      O    0.84396   0.43684   0.45034   1.000
    O8      O    0.15494   0.56302   0.54977   1.000
loop_
    _geom_bond_atom_site_label_1
    _geom_bond_atom_site_label_2
    _geom_bond_distance
    _geom_bond_site_symmetry_2
    _ccdc_geom_bond_type
    Zr2    O3        4.22895  1_655   S
    N0     O3        9.86197  1_556   S
    Zr2    O4        2.96323      .   S
    N0     O4        7.77666  1_556   S
    Zr2    O5        4.22127      .   S
    N1     O5        9.85340  1_554   S
    Zr2    O6        2.95685  1_655   S
    N1     O6        7.78338  1_554   S
    Zr2    O7        1.66290      .   S
    N1     O7        9.06803      .   S
    Zr2    O8        1.67156  1_655   S
    N0     O8        9.06816      .   S
