# CIF file generated by openbabel 2.4.90, see http://openbabel.sf.net
data_I
_chemical_name_common ''
_cell_length_a 10.816
_cell_length_b 15.94
_cell_length_c 18.497
_cell_angle_alpha 114.393
_cell_angle_beta 107.119
_cell_angle_gamma 93.922
_space_group_name_H-M_alt 'P 1'
_space_group_name_Hall 'P 1'
loop_
    _symmetry_equiv_pos_as_xyz
    x,y,z
loop_
    _atom_site_label
    _atom_site_type_symbol
    _atom_site_fract_x
    _atom_site_fract_y
    _atom_site_fract_z
    _atom_site_occupancy
    Zr0     Zr   0.07059   0.61723   0.57390   1.000
    Zr1     Zr   0.19257   0.51112   0.36795   1.000
    Zr2     Zr   0.92940   0.38277   0.42617   1.000
    Zr3     Zr   0.80741   0.48892   0.63219   1.000
    Zr4     Zr   0.24641   0.44219   0.22430   1.000
    Zr5     Zr   0.24638   0.45453   0.51612   1.000
    Zr6     Zr   0.22303   0.70302   0.49223   1.000
    Zr7     Zr   0.90572   0.34973   0.26572   1.000
    Zr8     Zr   0.75356   0.55783   0.77583   1.000
    Zr9     Zr   0.75360   0.54544   0.48394   1.000
    Zr10    Zr   0.77699   0.29702   0.50791   1.000
    Zr11    Zr   0.09431   0.65028   0.73439   1.000
    Zr12    Zr   0.96950   0.43372   0.32227   1.000
    Zr13    Zr   0.30201   0.46532   0.46869   1.000
    Zr14    Zr   0.13073   0.47610   0.51577   1.000
    Zr15    Zr   0.86678   0.28917   0.28818   1.000
    Zr16    Zr   0.24234   0.39018   0.26114   1.000
    Zr17    Zr   0.11361   0.64874   0.47746   1.000
    Zr18    Zr   0.29816   0.67026   0.45144   1.000
    Zr19    Zr   0.21323   0.52231   0.24920   1.000
    Zr20    Zr   0.00000   0.56630   0.67784   1.000
    Zr21    Zr   0.69799   0.53466   0.53139   1.000
    Zr22    Zr   0.86927   0.52391   0.48430   1.000
    Zr23    Zr   0.13329   0.71083   0.71194   1.000
    Zr24    Zr   0.75760   0.60983   0.73898   1.000
    Zr25    Zr   0.88641   0.35129   0.52267   1.000
    Zr26    Zr   0.70188   0.32979   0.54871   1.000
    Zr27    Zr   0.78675   0.47772   0.75094   1.000
    O28     O    0.22982   0.48225   0.23675   1.000
    O29     O    0.24437   0.41619   0.24272   1.000
    O30     O    0.20290   0.51672   0.30857   1.000
    O31     O    0.21745   0.45065   0.31454   1.000
    O32     O    0.88625   0.31945   0.27695   1.000
    O33     O    0.93761   0.39172   0.29400   1.000
    O34     O    0.89809   0.33597   0.35718   1.000
    O35     O    0.08103   0.47242   0.34511   1.000
    O36     O    0.24536   0.59069   0.40970   1.000
    O37     O    0.24729   0.48822   0.41832   1.000
    O38     O    0.03007   0.42943   0.47097   1.000
    O39     O    0.90791   0.36703   0.47442   1.000
    O40     O    0.26059   0.68664   0.47184   1.000
    O41     O    0.27420   0.45993   0.49240   1.000
    O42     O    0.16832   0.67588   0.48484   1.000
    O43     O    0.09210   0.63298   0.52568   1.000
    O44     O    0.81143   0.53468   0.48412   1.000
    O45     O    0.72579   0.54005   0.50766   1.000
    O46     O    0.96993   0.57057   0.52910   1.000
    O47     O    0.83170   0.32416   0.51529   1.000
    O48     O    0.73943   0.31341   0.52831   1.000
    O49     O    0.18856   0.46532   0.51594   1.000
    O50     O    0.75270   0.51179   0.58179   1.000
    O51     O    0.75465   0.40935   0.59045   1.000
    O52     O    0.10194   0.66403   0.64292   1.000
    O53     O    0.90371   0.52761   0.65502   1.000
    O54     O    0.78251   0.54937   0.68558   1.000
    O55     O    0.79708   0.48332   0.69156   1.000
    O56     O    0.04716   0.60829   0.70611   1.000
    O57     O    0.11380   0.68055   0.72316   1.000
    O58     O    0.75558   0.58383   0.75740   1.000
    O59     O    0.77015   0.51777   0.76338   1.000
    O60     O    0.94945   0.40824   0.37422   1.000
    O61     O    0.10066   0.54667   0.54483   1.000
    O62     O    0.89934   0.45334   0.45524   1.000
    N63     N    0.50297   0.23990   0.83626   1.000
    O64     O    0.83514   0.31587   0.12496   1.000
    O65     O    0.32245   0.38514   0.11343   1.000
    O66     O    0.29501   0.85740   0.59068   1.000
    O67     O    0.32694   0.39465   0.60828   1.000
    N68     N    0.49699   0.76014   0.16380   1.000
    O69     O    0.67305   0.60537   0.39182   1.000
    O70     O    0.70497   0.14199   0.40943   1.000
    O71     O    0.67752   0.61489   0.88671   1.000
    O72     O    0.16487   0.68415   0.87448   1.000
loop_
    _geom_bond_atom_site_label_1
    _geom_bond_atom_site_label_2
    _geom_bond_distance
    _geom_bond_site_symmetry_2
    _ccdc_geom_bond_type
    Zr4    O28       0.64150      .   S
    Zr19   O28       0.64150      .   S
    Zr4    O29       0.63889      .   S
    Zr16   O29       0.63889      .   S
    Zr19   O30       1.17405      .   S
    Zr1    O30       1.17405      .   S
    Zr16   O31       1.17597      .   S
    Zr1    O31       1.17597      .   S
    Zr7    O32       0.64430      .   S
    Zr15   O32       0.64430      .   S
    Zr7    O33       0.64314      .   S
    Zr12   O33       0.64314      .   S
    Zr15   O34       1.10657      .   S
    Zr2    O34       1.10657      .   S
    Zr12   O35       1.18205  1_655   S
    Zr1    O35       1.18205      .   S
    Zr1    O36       1.16764      .   S
    Zr18   O36       1.16764      .   S
    Zr1    O37       1.15646      .   S
    Zr13   O37       1.15646      .   S
    Zr2    O38       1.12889  1_655   S
    Zr14   O38       1.12889      .   S
    Zr2    O39       1.10117      .   S
    Zr25   O39       1.10117      .   S
    Zr18   O40       0.63163      .   S
    Zr6    O40       0.63163      .   S
    Zr13   O41       0.62899      .   S
    Zr5    O41       0.62899      .   S
    Zr17   O42       0.65157      .   S
    Zr6    O42       0.65157      .   S
    Zr17   O43       1.10085      .   S
    Zr0    O43       1.10085      .   S
    Zr9    O44       0.65933      .   S
    Zr22   O44       0.65933      .   S
    Zr9    O45       0.62904      .   S
    Zr21   O45       0.62904      .   S
    Zr22   O46       1.12881      .   S
    Zr0    O46       1.12881  1_455   S
    Zr10   O47       0.65158      .   S
    Zr25   O47       0.65158      .   S
    Zr10   O48       0.63161      .   S
    Zr26   O48       0.63161      .   S
    Zr14   O49       0.65933      .   S
    Zr5    O49       0.65933      .   S
    Zr21   O50       1.15655      .   S
    Zr3    O50       1.15655      .   S
    Zr26   O51       1.16755      .   S
    Zr3    O51       1.16755      .   S
    Zr0    O52       1.10690      .   S
    Zr23   O52       1.10690      .   S
    Zr3    O53       1.03996      .   S
    Zr20   O53       1.03996  1_455   S
    Zr3    O54       1.17585      .   S
    Zr24   O54       1.17585      .   S
    Zr3    O55       1.17411      .   S
    Zr27   O55       1.17411      .   S
    Zr20   O56       0.69913      .   S
    Zr11   O56       0.69913      .   S
    Zr23   O57       0.64424      .   S
    Zr11   O57       0.64424      .   S
    Zr24   O58       0.63889      .   S
    Zr8    O58       0.63889      .   S
    Zr27   O59       0.64148      .   S
    Zr8    O59       0.64148      .   S
    Zr12   O60       1.25229      .   S
    Zr2    O60       1.25229      .   S
    Zr14   O61       1.14608      .   S
    Zr0    O61       1.14608      .   S
    Zr22   O62       1.14617      .   S
    Zr2    O62       1.14617      .   S
    N63    O64       5.06556  1_556   S
    Zr7    O64       2.29468      .   S
    N63    O65       5.67129  1_556   S
    Zr4    O65       2.29441      .   S
    N63    O66       5.66578  1_545   S
    Zr6    O66       2.27588      .   S
    N63    O67       5.65686      .   S
    Zr5    O67       2.27139      .   S
    N68    O69       5.65781      .   S
    Zr9    O69       2.27135      .   S
    N68    O70       5.65847  1_565   S
    Zr10   O70       2.28368      .   S
    N68    O71       5.67020  1_554   S
    Zr8    O71       2.29444      .   S
    N68    O72       5.07384  1_554   S
    Zr11   O72       2.28300      .   S
