# CIF file generated by openbabel 2.4.90, see http://openbabel.sf.net
data_I
_chemical_name_common ''
_cell_length_a 10.816
_cell_length_b 15.94
_cell_length_c 18.497
_cell_angle_alpha 114.393
_cell_angle_beta 107.119
_cell_angle_gamma 93.922
_space_group_name_H-M_alt 'P 1'
_space_group_name_Hall 'P 1'
loop_
    _symmetry_equiv_pos_as_xyz
    x,y,z
loop_
    _atom_site_label
    _atom_site_type_symbol
    _atom_site_fract_x
    _atom_site_fract_y
    _atom_site_fract_z
    _atom_site_occupancy
    C0      C    0.07059   0.61723   0.57390   1.000
    C1      C    0.19257   0.51112   0.36795   1.000
    C2      C    0.92940   0.38277   0.42617   1.000
    C3      C    0.80741   0.48892   0.63219   1.000
    C4      C    0.56822   0.31516   0.62430   1.000
    C5      C    0.41135   0.49766   0.03734   1.000
    C6      C    0.66204   0.36230   0.92738   1.000
    C7      C    0.68866   0.29506   0.83072   1.000
    C8      C    0.12826   0.97965   0.66990   1.000
    C9      C    0.42662   0.36306   0.83650   1.000
    C10     C    0.31862   0.25176   0.75829   1.000
    C11     C    0.80702   0.17425   0.13733   1.000
    C12     C    0.25629   0.36877   0.72861   1.000
    C13     C    0.72877   0.12711   0.98131   1.000
    C14     C    0.52817   0.98737   0.67010   1.000
    C15     C    0.06298   0.81046   0.56234   1.000
    C16     C    0.84022   0.41818   0.03745   1.000
    C17     C    0.92334   0.46342   0.19144   1.000
    C18     C    0.50754   0.20762   0.94010   1.000
    C19     C    0.34431   0.19978   0.87396   1.000
    C20     C    0.47029   0.38574   0.52920   1.000
    C21     C    0.37681   0.21791   0.01866   1.000
    C22     C    0.46125   0.81988   0.56238   1.000
    C23     C    0.28812   0.26911   0.13634   1.000
    C24     C    0.55699   0.10379   0.80467   1.000
    C25     C    0.52696   0.14003   0.72242   1.000
    C26     C    0.31677   0.54661   0.15451   1.000
    C27     C    0.15888   0.43680   0.63280   1.000
    C28     C    0.43176   0.68485   0.37582   1.000
    C29     C    0.58865   0.50238   0.96280   1.000
    C30     C    0.33793   0.63774   0.07275   1.000
    C31     C    0.31130   0.70498   0.16940   1.000
    C32     C    0.87170   0.02038   0.33020   1.000
    C33     C    0.57335   0.63699   0.16359   1.000
    C34     C    0.68135   0.74830   0.24184   1.000
    C35     C    0.19304   0.82575   0.86278   1.000
    C36     C    0.74369   0.63127   0.27151   1.000
    C37     C    0.27126   0.87290   0.00000   1.000
    C38     C    0.47179   0.00000   0.32996   1.000
    C39     C    0.93701   0.18957   0.43778   1.000
    C40     C    0.15973   0.58184   0.96267   1.000
    C41     C    0.07663   0.53659   0.80868   1.000
    C42     C    0.49243   0.79242   0.05999   1.000
    C43     C    0.65565   0.80026   0.12617   1.000
    C44     C    0.52970   0.61425   0.47090   1.000
    C45     C    0.62312   0.78211   0.98145   1.000
    C46     C    0.53874   0.18018   0.43775   1.000
    C47     C    0.71182   0.73090   0.86377   1.000
    C48     C    0.44296   0.89625   0.19546   1.000
    C49     C    0.47301   0.86001   0.27771   1.000
    C50     C    0.68324   0.45343   0.84565   1.000
    C51     C    0.84111   0.56323   0.36730   1.000
    C52     C    0.47814   0.34131   0.62523   1.000
    C53     C    0.38276   0.44832   0.05946   1.000
    C54     C    0.65102   0.29071   0.87832   1.000
    C55     C    0.20052   0.94355   0.64635   1.000
    C56     C    0.42271   0.29102   0.79067   1.000
    C57     C    0.81457   0.22676   0.11460   1.000
    C58     C    0.30325   0.37127   0.68480   1.000
    C59     C    0.77032   0.20062   0.02835   1.000
    C60     C    0.42623   0.94944   0.64712   1.000
    C61     C    0.16511   0.84924   0.58689   1.000
    C62     C    0.83147   0.36467   0.05896   1.000
    C63     C    0.87829   0.39007   0.14543   1.000
    C64     C    0.44761   0.24016   0.90397   1.000
    C65     C    0.42370   0.38099   0.57258   1.000
    C66     C    0.36401   0.29002   0.04772   1.000
    C67     C    0.50297   0.23990   0.83626   1.000
    C68     C    0.33166   0.99424   0.67716   1.000
    C69     C    0.29590   0.41069   0.15206   1.000
    C70     C    0.38892   0.85512   0.58658   1.000
    C71     C    0.41765   0.33585   0.68121   1.000
    C72     C    0.24641   0.44219   0.22430   1.000
    C73     C    0.77572   0.26975   0.00020   1.000
    C74     C    0.31369   0.31848   0.11352   1.000
    C75     C    0.49331   0.13825   0.77257   1.000
    C76     C    0.86799   0.32195   0.17420   1.000
    C77     C    0.24638   0.45453   0.51612   1.000
    C78     C    0.30739   0.41530   0.57425   1.000
    C79     C    0.33046   0.47504   0.12376   1.000
    C80     C    0.24837   0.40998   0.63088   1.000
    C81     C    0.39962   0.35553   0.02113   1.000
    C82     C    0.22303   0.70302   0.49223   1.000
    C83     C    0.25886   0.80355   0.55610   1.000
    C84     C    0.90572   0.34973   0.26572   1.000
    C85     C    0.52186   0.65873   0.37490   1.000
    C86     C    0.61723   0.55172   0.94068   1.000
    C87     C    0.34894   0.70932   0.12181   1.000
    C88     C    0.79944   0.05649   0.35377   1.000
    C89     C    0.57726   0.70903   0.20946   1.000
    C90     C    0.18547   0.77325   0.88551   1.000
    C91     C    0.69675   0.62879   0.31533   1.000
    C92     C    0.22969   0.79939   0.97176   1.000
    C93     C    0.57374   0.05062   0.35300   1.000
    C94     C    0.83487   0.15080   0.41324   1.000
    C95     C    0.16849   0.63536   0.94116   1.000
    C96     C    0.12169   0.60995   0.85469   1.000
    C97     C    0.55235   0.75988   0.09616   1.000
    C98     C    0.57627   0.61900   0.42750   1.000
    C99     C    0.63594   0.71001   0.95241   1.000
    C100    C    0.49699   0.76014   0.16380   1.000
    C101    C    0.66830   0.00000   0.32296   1.000
    C102    C    0.70406   0.58933   0.84808   1.000
    C103    C    0.61107   0.14493   0.41355   1.000
    C104    C    0.58230   0.66416   0.31889   1.000
    C105    C    0.75356   0.55783   0.77583   1.000
    C106    C    0.22427   0.73027   0.99984   1.000
    C107    C    0.68626   0.68155   0.88660   1.000
    C108    C    0.50664   0.86179   0.22756   1.000
    C109    C    0.13202   0.67806   0.82591   1.000
    C110    C    0.75360   0.54544   0.48394   1.000
    C111    C    0.69262   0.58473   0.42586   1.000
    C112    C    0.66952   0.52500   0.87639   1.000
    C113    C    0.75160   0.59003   0.36920   1.000
    C114    C    0.60035   0.64450   0.97901   1.000
    C115    C    0.77699   0.29702   0.50791   1.000
    C116    C    0.74112   0.19649   0.44396   1.000
    C117    C    0.09431   0.65028   0.73439   1.000
    C118    C    0.35794   0.08658   0.73603   1.000
    C119    C    0.96950   0.43372   0.32227   1.000
    C120    C    0.72851   0.23766   0.91383   1.000
    C121    C    0.30201   0.46532   0.46869   1.000
    C122    C    0.13073   0.47610   0.51577   1.000
    C123    C    0.45343   0.33670   0.95885   1.000
    C124    C    0.86678   0.28917   0.28818   1.000
    C125    C    0.47765   0.29437   0.72986   1.000
    C126    C    0.24234   0.39018   0.26114   1.000
    C127    C    0.11361   0.64874   0.47746   1.000
    C128    C    0.29816   0.67026   0.45144   1.000
    C129    C    0.21323   0.52231   0.24920   1.000
    C130    C    0.64202   0.91346   0.26409   1.000
    C131    C    0.00000   0.56630   0.67784   1.000
    C132    C    0.27145   0.76237   0.08628   1.000
    C133    C    0.69799   0.53466   0.53139   1.000
    C134    C    0.86927   0.52391   0.48430   1.000
    C135    C    0.54653   0.66334   0.04128   1.000
    C136    C    0.13329   0.71083   0.71194   1.000
    C137    C    0.52233   0.70568   0.27028   1.000
    C138    C    0.75760   0.60983   0.73898   1.000
    C139    C    0.88641   0.35129   0.52267   1.000
    C140    C    0.70188   0.32979   0.54871   1.000
    C141    C    0.78675   0.47772   0.75094   1.000
    O142    O    0.25047   0.83615   0.98588   1.000
    O143    O    0.77302   0.23519   0.01428   1.000
    O144    O    0.80359   0.31721   0.02958   1.000
    O145    O    0.75211   0.25371   0.95701   1.000
    O146    O    0.37041   0.25397   0.03319   1.000
    O147    O    0.38181   0.32278   0.03442   1.000
    O148    O    0.39119   0.40193   0.04030   1.000
    O149    O    0.42652   0.34612   0.98999   1.000
    O150    O    0.79244   0.21369   0.07148   1.000
    O151    O    0.74955   0.16387   0.00483   1.000
    O152    O    0.39705   0.47299   0.04840   1.000
    O153    O    0.83585   0.39143   0.04820   1.000
    O154    O    0.54944   0.71161   0.06872   1.000
    O155    O    0.57344   0.65392   0.01015   1.000
    O156    O    0.33885   0.30425   0.08062   1.000
    O157    O    0.85488   0.37737   0.10219   1.000
    O158    O    0.35661   0.46168   0.09161   1.000
    O159    O    0.52239   0.77615   0.07807   1.000
    O160    O    0.34344   0.67353   0.09728   1.000
    O161    O    0.31020   0.73585   0.10404   1.000
    O162    O    0.24786   0.74632   0.04306   1.000
    O163    O    0.60400   0.78007   0.11117   1.000
    O164    O    0.52467   0.76001   0.12998   1.000
    O165    O    0.30090   0.29380   0.12493   1.000
    O166    O    0.30480   0.36459   0.13279   1.000
    O167    O    0.81080   0.20051   0.12597   1.000
    O168    O    0.84128   0.27436   0.14440   1.000
    O169    O    0.42296   0.73473   0.14280   1.000
    O170    O    0.33012   0.70715   0.14561   1.000
    O171    O    0.31318   0.44287   0.13791   1.000
    O172    O    0.32361   0.51082   0.13914   1.000
    O173    O    0.87314   0.35601   0.15981   1.000
    O174    O    0.90082   0.42675   0.16844   1.000
    O175    O    0.27115   0.42644   0.18818   1.000
    O176    O    0.57531   0.67301   0.18653   1.000
    O177    O    0.53712   0.73458   0.18663   1.000
    O178    O    0.50182   0.81097   0.19568   1.000
    O179    O    0.88686   0.33584   0.21996   1.000
    O180    O    0.47480   0.87902   0.21151   1.000
    O181    O    0.62930   0.72866   0.22565   1.000
    O182    O    0.54979   0.70735   0.23987   1.000
    O183    O    0.22982   0.48225   0.23675   1.000
    O184    O    0.24437   0.41619   0.24272   1.000
    O185    O    0.57433   0.88763   0.24582   1.000
    O186    O    0.48983   0.86090   0.25264   1.000
    O187    O    0.20290   0.51672   0.30857   1.000
    O188    O    0.21745   0.45065   0.31454   1.000
    O189    O    0.65516   0.95673   0.29352   1.000
    O190    O    0.88625   0.31945   0.27695   1.000
    O191    O    0.93761   0.39172   0.29400   1.000
    O192    O    0.55232   0.68492   0.29459   1.000
    O193    O    0.72022   0.63003   0.29342   1.000
    O194    O    0.89809   0.33597   0.35718   1.000
    O195    O    0.63953   0.64647   0.31711   1.000
    O196    O    0.72418   0.60941   0.34226   1.000
    O197    O    0.55208   0.66144   0.34690   1.000
    O198    O    0.08103   0.47242   0.34511   1.000
    O199    O    0.62102   0.02531   0.33798   1.000
    O200    O    0.73387   0.02824   0.33836   1.000
    O201    O    0.52277   0.02531   0.34148   1.000
    O202    O    0.83557   0.03844   0.34198   1.000
    O203    O    0.59240   0.09778   0.38327   1.000
    O204    O    0.81716   0.10364   0.38351   1.000
    O205    O    0.79635   0.57663   0.36825   1.000
    O206    O    0.24536   0.59069   0.40970   1.000
    O207    O    0.24729   0.48822   0.41832   1.000
    O208    O    0.72211   0.58738   0.39753   1.000
    O209    O    0.47681   0.67179   0.37536   1.000
    O210    O    0.54907   0.63886   0.40120   1.000
    O211    O    0.88594   0.17018   0.42551   1.000
    O212    O    0.78800   0.17365   0.42860   1.000
    O213    O    0.57490   0.16256   0.42565   1.000
    O214    O    0.67610   0.17071   0.42875   1.000
    O215    O    0.63445   0.60187   0.42668   1.000
    O216    O    0.72311   0.56509   0.45490   1.000
    O217    O    0.03007   0.42943   0.47097   1.000
    O218    O    0.90791   0.36703   0.47442   1.000
    O219    O    0.55299   0.61662   0.44920   1.000
    O220    O    0.75906   0.24676   0.47593   1.000
    O221    O    0.26059   0.68664   0.47184   1.000
    O222    O    0.27420   0.45993   0.49240   1.000
    O223    O    0.16832   0.67588   0.48484   1.000
    O224    O    0.09210   0.63298   0.52568   1.000
    O225    O    0.81143   0.53468   0.48412   1.000
    O226    O    0.72579   0.54005   0.50766   1.000
    O227    O    0.96993   0.57057   0.52910   1.000
    O228    O    0.24094   0.75328   0.52417   1.000
    O229    O    0.83170   0.32416   0.51529   1.000
    O230    O    0.73943   0.31341   0.52831   1.000
    O231    O    0.18856   0.46532   0.51594   1.000
    O232    O    0.27689   0.43491   0.54519   1.000
    O233    O    0.44699   0.38337   0.55089   1.000
    O234    O    0.75270   0.51179   0.58179   1.000
    O235    O    0.75465   0.40935   0.59045   1.000
    O236    O    0.32389   0.82933   0.57134   1.000
    O237    O    0.21199   0.82639   0.57149   1.000
    O238    O    0.11404   0.82985   0.57461   1.000
    O239    O    0.42508   0.83750   0.57448   1.000
    O240    O    0.36554   0.39814   0.57342   1.000
    O241    O    0.45092   0.36115   0.59890   1.000
    O242    O    0.10194   0.66403   0.64292   1.000
    O243    O    0.27788   0.41264   0.60257   1.000
    O244    O    0.40757   0.90228   0.61685   1.000
    O245    O    0.18282   0.89639   0.61662   1.000
    O246    O    0.52318   0.32824   0.62477   1.000
    O247    O    0.44790   0.33858   0.65322   1.000
    O248    O    0.20362   0.42339   0.63184   1.000
    O249    O    0.27581   0.39063   0.65784   1.000
    O250    O    0.90371   0.52761   0.65502   1.000
    O251    O    0.78251   0.54937   0.68558   1.000
    O252    O    0.79708   0.48332   0.69156   1.000
    O253    O    0.16439   0.96160   0.65812   1.000
    O254    O    0.26609   0.96890   0.66175   1.000
    O255    O    0.47720   0.96840   0.65861   1.000
    O256    O    0.37895   0.97184   0.66214   1.000
    O257    O    0.34480   0.04041   0.70659   1.000
    O258    O    0.04716   0.60829   0.70611   1.000
    O259    O    0.36045   0.35356   0.68300   1.000
    O260    O    0.44765   0.31511   0.70554   1.000
    O261    O    0.27977   0.37002   0.70671   1.000
    O262    O    0.11380   0.68055   0.72316   1.000
    O263    O    0.51014   0.13914   0.74750   1.000
    O264    O    0.45018   0.29269   0.76027   1.000
    O265    O    0.11317   0.66417   0.78015   1.000
    O266    O    0.42562   0.11242   0.75430   1.000
    O267    O    0.75558   0.58383   0.75740   1.000
    O268    O    0.77015   0.51777   0.76338   1.000
    O269    O    0.37066   0.27139   0.77448   1.000
    O270    O    0.52515   0.12102   0.78862   1.000
    O271    O    0.49814   0.18908   0.80442   1.000
    O272    O    0.72881   0.57358   0.81196   1.000
    O273    O    0.46284   0.26546   0.81346   1.000
    O274    O    0.42467   0.32704   0.81359   1.000
    O275    O    0.09916   0.57327   0.83169   1.000
    O276    O    0.12686   0.64400   0.84030   1.000
    O277    O    0.15874   0.72565   0.85571   1.000
    O278    O    0.66984   0.29289   0.85452   1.000
    O279    O    0.57700   0.26531   0.85729   1.000
    O280    O    0.47529   0.24003   0.87011   1.000
    O281    O    0.67638   0.48921   0.86102   1.000
    O282    O    0.68679   0.55717   0.86223   1.000
    O283    O    0.69516   0.63544   0.86734   1.000
    O284    O    0.14509   0.62265   0.89792   1.000
    O285    O    0.18925   0.79950   0.87414   1.000
    O286    O    0.69904   0.70622   0.87519   1.000
    O287    O    0.39596   0.21997   0.88897   1.000
    O288    O    0.64338   0.53836   0.90853   1.000
    O289    O    0.68977   0.26419   0.89608   1.000
    O290    O    0.65653   0.32650   0.90285   1.000
    O291    O    0.20758   0.78632   0.92864   1.000
    O292    O    0.66110   0.69578   0.91951   1.000
    O293    O    0.47758   0.22389   0.92204   1.000
    O294    O    0.45052   0.28843   0.93141   1.000
    O295    O    0.60294   0.52705   0.95174   1.000
    O296    O    0.60879   0.59811   0.95984   1.000
    O297    O    0.16411   0.60860   0.95191   1.000
    O298    O    0.19638   0.68281   0.97050   1.000
    O299    O    0.61814   0.67725   0.96571   1.000
    O300    O    0.62953   0.74606   0.96693   1.000
    O301    O    0.22698   0.76483   0.98580   1.000
    O302    O    0.94945   0.40824   0.37422   1.000
    O303    O    0.10066   0.54667   0.54483   1.000
    O304    O    0.89934   0.45334   0.45524   1.000
loop_
    _geom_bond_atom_site_label_1
    _geom_bond_atom_site_label_2
    _geom_bond_distance
    _geom_bond_site_symmetry_2
    _ccdc_geom_bond_type
    C37    O142      0.53201  1_554   S
    C92    O142      0.53201      .   S
    C73    O143      0.70210      .   S
    C59    O143      0.70210      .   S
    C73    O144      0.70092      .   S
    C62    O144      0.70092      .   S
    C73    O145      0.68624  1_554   S
    C120   O145      0.68624      .   S
    C21    O146      0.54420      .   S
    C66    O146      0.54420      .   S
    C81    O147      0.70027      .   S
    C66    O147      0.70027      .   S
    C81    O148      0.70183      .   S
    C53    O148      0.70183      .   S
    C81    O149      0.68719  1_554   S
    C123   O149      0.68719      .   S
    C59    O150      0.69318      .   S
    C57    O150      0.69318      .   S
    C59    O151      0.54492      .   S
    C13    O151      0.54492  1_556   S
    C5     O152      0.54511      .   S
    C53    O152      0.54511      .   S
    C16    O153      0.54460      .   S
    C62    O153      0.54460      .   S
    C135   O154      0.71790      .   S
    C97    O154      0.71790      .   S
    C135   O155      0.68712      .   S
    C114   O155      0.68712  1_556   S
    C66    O156      0.69839      .   S
    C74    O156      0.69839      .   S
    C62    O157      0.69621      .   S
    C63    O157      0.69621      .   S
    C53    O158      0.69399      .   S
    C79    O158      0.69399      .   S
    C42    O159      0.55093      .   S
    C97    O159      0.55093      .   S
    C30    O160      0.54823      .   S
    C87    O160      0.54823      .   S
    C132   O161      0.72127      .   S
    C87    O161      0.72127      .   S
    C132   O162      0.68681      .   S
    C106   O162      0.68681  1_556   S
    C97    O163      0.55049      .   S
    C43    O163      0.55049      .   S
    C97    O164      0.76829      .   S
    C100   O164      0.76829      .   S
    C74    O165      0.54477      .   S
    C23    O165      0.54477      .   S
    C74    O166      0.69995      .   S
    C69    O166      0.69995      .   S
    C57    O167      0.54444      .   S
    C11    O167      0.54444      .   S
    C57    O168      0.70265      .   S
    C76    O168      0.70265      .   S
    C87    O169      0.77364      .   S
    C100   O169      0.77364      .   S
    C87    O170      0.54838      .   S
    C31    O170      0.54838      .   S
    C79    O171      0.70212      .   S
    C69    O171      0.70212      .   S
    C79    O172      0.54399      .   S
    C26    O172      0.54399      .   S
    C63    O173      0.70180      .   S
    C76    O173      0.70180      .   S
    C63    O174      0.54428      .   S
    C17    O174      0.54428      .   S
    C69    O175      0.74632      .   S
    C72    O175      0.74632      .   S
    C33    O176      0.54950      .   S
    C89    O176      0.54950      .   S
    C100   O177      0.76881      .   S
    C89    O177      0.76881      .   S
    C100   O178      0.76700      .   S
    C108   O178      0.76700      .   S
    C76    O179      0.73787      .   S
    C84    O179      0.73787      .   S
    C48    O180      0.54980      .   S
    C108   O180      0.54980      .   S
    C89    O181      0.55115      .   S
    C34    O181      0.55115      .   S
    C89    O182      0.71766      .   S
    C137   O182      0.71766      .   S
    C72    O183      0.64150      .   S
    C129   O183      0.64150      .   S
    C72    O184      0.63889      .   S
    C126   O184      0.63889      .   S
    C108   O185      0.71966      .   S
    C130   O185      0.71966      .   S
    C108   O186      0.55060      .   S
    C49    O186      0.55060      .   S
    C129   O187      1.17405      .   S
    C1     O187      1.17405      .   S
    C126   O188      1.17597      .   S
    C1     O188      1.17597      .   S
    C130   O189      0.65053      .   S
    C101   O189      0.65053  1_545   S
    C84    O190      0.64430      .   S
    C124   O190      0.64430      .   S
    C84    O191      0.64314      .   S
    C119   O191      0.64314      .   S
    C137   O192      0.68451      .   S
    C104   O192      0.68451      .   S
    C36    O193      0.54367      .   S
    C91    O193      0.54367      .   S
    C124   O194      1.10657      .   S
    C2     O194      1.10657      .   S
    C91    O195      0.70129      .   S
    C104   O195      0.70129      .   S
    C91    O196      0.69593      .   S
    C113   O196      0.69593      .   S
    C104   O197      0.70238      .   S
    C85    O197      0.70238      .   S
    C119   O198      1.18205  1_655   S
    C1     O198      1.18205      .   S
    C101   O199      0.72162      .   S
    C93    O199      0.72162      .   S
    C101   O200      0.71990      .   S
    C88    O200      0.71990      .   S
    C38    O201      0.58442      .   S
    C93    O201      0.58442      .   S
    C32    O202      0.54475      .   S
    C88    O202      0.54475      .   S
    C93    O203      0.69598      .   S
    C103   O203      0.69598      .   S
    C88    O204      0.69352      .   S
    C94    O204      0.69352      .   S
    C51    O205      0.54430      .   S
    C113   O205      0.54430      .   S
    C1     O206      1.16764      .   S
    C128   O206      1.16764      .   S
    C1     O207      1.15646      .   S
    C121   O207      1.15646      .   S
    C113   O208      0.70210      .   S
    C111   O208      0.70210      .   S
    C85    O209      0.54376      .   S
    C28    O209      0.54376      .   S
    C85    O210      0.69227      .   S
    C98    O210      0.69227      .   S
    C94    O211      0.54499      .   S
    C39    O211      0.54499      .   S
    C94    O212      0.70356      .   S
    C116   O212      0.70356      .   S
    C103   O213      0.54464      .   S
    C46    O213      0.54464      .   S
    C103   O214      0.70085      .   S
    C116   O214      0.70085      .   S
    C111   O215      0.70455      .   S
    C98    O215      0.70455      .   S
    C111   O216      0.73765      .   S
    C110   O216      0.73765      .   S
    C2     O217      1.12889  1_655   S
    C122   O217      1.12889      .   S
    C2     O218      1.10117      .   S
    C139   O218      1.10117      .   S
    C98    O219      0.54472      .   S
    C44    O219      0.54472      .   S
    C116   O220      0.74106      .   S
    C115   O220      0.74106      .   S
    C128   O221      0.63163      .   S
    C82    O221      0.63163      .   S
    C121   O222      0.62899      .   S
    C77    O222      0.62899      .   S
    C127   O223      0.65157      .   S
    C82    O223      0.65157      .   S
    C127   O224      1.10085      .   S
    C0     O224      1.10085      .   S
    C110   O225      0.65933      .   S
    C134   O225      0.65933      .   S
    C110   O226      0.62904      .   S
    C133   O226      0.62904      .   S
    C134   O227      1.12881      .   S
    C0     O227      1.12881  1_455   S
    C82    O228      0.74088      .   S
    C83    O228      0.74088      .   S
    C115   O229      0.65158      .   S
    C139   O229      0.65158      .   S
    C115   O230      0.63161      .   S
    C140   O230      0.63161      .   S
    C122   O231      0.65933      .   S
    C77    O231      0.65933      .   S
    C77    O232      0.73768      .   S
    C78    O232      0.73768      .   S
    C20    O233      0.54464      .   S
    C65    O233      0.54464      .   S
    C133   O234      1.15655      .   S
    C3     O234      1.15655      .   S
    C140   O235      1.16755      .   S
    C3     O235      1.16755      .   S
    C83    O236      0.70078      .   S
    C70    O236      0.70078      .   S
    C83    O237      0.70380      .   S
    C61    O237      0.70380      .   S
    C15    O238      0.54499      .   S
    C61    O238      0.54499      .   S
    C22    O239      0.54464      .   S
    C70    O239      0.54464      .   S
    C65    O240      0.70456      .   S
    C78    O240      0.70456      .   S
    C65    O241      0.69233      .   S
    C52    O241      0.69233      .   S
    C0     O242      1.10690      .   S
    C136   O242      1.10690      .   S
    C78    O243      0.70205      .   S
    C80    O243      0.70205      .   S
    C70    O244      0.69597      .   S
    C60    O244      0.69597      .   S
    C61    O245      0.69351      .   S
    C55    O245      0.69351      .   S
    C4     O246      0.54376      .   S
    C52    O246      0.54376      .   S
    C52    O247      0.70239      .   S
    C71    O247      0.70239      .   S
    C80    O248      0.54432      .   S
    C27    O248      0.54432      .   S
    C80    O249      0.69602      .   S
    C58    O249      0.69602      .   S
    C3     O250      1.03996      .   S
    C131   O250      1.03996  1_455   S
    C3     O251      1.17585      .   S
    C138   O251      1.17585      .   S
    C3     O252      1.17411      .   S
    C141   O252      1.17411      .   S
    C55    O253      0.54469      .   S
    C8     O253      0.54469      .   S
    C55    O254      0.70294      .   S
    C68    O254      0.70294      .   S
    C60    O255      0.54377      .   S
    C14    O255      0.54377      .   S
    C60    O256      0.70209      .   S
    C68    O256      0.70209      .   S
    C68    O257      0.68370  1_565   S
    C118   O257      0.68370      .   S
    C131   O258      0.69913      .   S
    C117   O258      0.69913      .   S
    C71    O259      0.70130      .   S
    C58    O259      0.70130      .   S
    C71    O260      0.68455      .   S
    C125   O260      0.68455      .   S
    C58    O261      0.54371      .   S
    C12    O261      0.54371      .   S
    C136   O262      0.64424      .   S
    C117   O262      0.64424      .   S
    C25    O263      0.55063      .   S
    C75    O263      0.55063      .   S
    C125   O264      0.71762      .   S
    C56    O264      0.71762      .   S
    C117   O265      0.73787      .   S
    C109   O265      0.73787      .   S
    C118   O266      0.71966      .   S
    C75    O266      0.71966      .   S
    C138   O267      0.63889      .   S
    C105   O267      0.63889      .   S
    C141   O268      0.64148      .   S
    C105   O268      0.64148      .   S
    C10    O269      0.55115      .   S
    C56    O269      0.55115      .   S
    C75    O270      0.54980      .   S
    C24    O270      0.54980      .   S
    C75    O271      0.76679      .   S
    C67    O271      0.76679      .   S
    C105   O272      0.74640      .   S
    C102   O272      0.74640      .   S
    C56    O273      0.76844      .   S
    C67    O273      0.76844      .   S
    C56    O274      0.54938      .   S
    C9     O274      0.54938      .   S
    C41    O275      0.54428      .   S
    C96    O275      0.54428      .   S
    C109   O276      0.70184      .   S
    C96    O276      0.70184      .   S
    C109   O277      0.70266      .   S
    C90    O277      0.70266      .   S
    C7     O278      0.54846      .   S
    C54    O278      0.54846      .   S
    C67    O279      0.77363      .   S
    C54    O279      0.77363      .   S
    C67    O280      0.76888      .   S
    C64    O280      0.76888      .   S
    C50    O281      0.54399      .   S
    C112   O281      0.54399      .   S
    C102   O282      0.70210      .   S
    C112   O282      0.70210      .   S
    C102   O283      0.69994      .   S
    C107   O283      0.69994      .   S
    C96    O284      0.69619      .   S
    C95    O284      0.69619      .   S
    C35    O285      0.54442      .   S
    C90    O285      0.54442      .   S
    C47    O286      0.54478      .   S
    C107   O286      0.54478      .   S
    C19    O287      0.55049      .   S
    C64    O287      0.55049      .   S
    C112   O288      0.69391      .   S
    C86    O288      0.69391      .   S
    C54    O289      0.72122      .   S
    C120   O289      0.72122      .   S
    C54    O290      0.54821      .   S
    C6     O290      0.54821      .   S
    C90    O291      0.69318      .   S
    C92    O291      0.69318      .   S
    C107   O292      0.69846      .   S
    C99    O292      0.69846      .   S
    C64    O293      0.55072      .   S
    C18    O293      0.55072      .   S
    C64    O294      0.71788      .   S
    C123   O294      0.71788      .   S
    C86    O295      0.54505      .   S
    C29    O295      0.54505      .   S
    C86    O296      0.70184      .   S
    C114   O296      0.70184      .   S
    C95    O297      0.54459      .   S
    C40    O297      0.54459      .   S
    C95    O298      0.70077      .   S
    C106   O298      0.70077      .   S
    C99    O299      0.70027      .   S
    C114   O299      0.70027      .   S
    C99    O300      0.54419      .   S
    C45    O300      0.54419      .   S
    C92    O301      0.70161      .   S
    C106   O301      0.70161      .   S
    C119   O302      1.25229      .   S
    C2     O302      1.25229      .   S
    C122   O303      1.14608      .   S
    C0     O303      1.14608      .   S
    C134   O304      1.14617      .   S
    C2     O304      1.14617      .   S
