# CIF file generated by openbabel 2.4.90, see http://openbabel.sf.net
data_I
_chemical_name_common ''
_cell_length_a 11.736
_cell_length_b 14.229
_cell_length_c 14.35
_cell_angle_alpha 76.733
_cell_angle_beta 89.878
_cell_angle_gamma 65.675
_space_group_name_H-M_alt 'P 1'
_space_group_name_Hall 'P 1'
loop_
    _symmetry_equiv_pos_as_xyz
    x,y,z
loop_
    _atom_site_label
    _atom_site_type_symbol
    _atom_site_fract_x
    _atom_site_fract_y
    _atom_site_fract_z
    _atom_site_occupancy
    Lv0     Lv   0.94084   0.96348   0.12401   1.000
    Lv1     Lv   0.83525   0.61561   0.92377   1.000
    Lv2     Lv   0.45032   0.38440   0.57597   1.000
    Lv3     Lv   0.16478   0.38433   0.07619   1.000
    Lv4     Lv   0.05918   0.03675   0.87594   1.000
    Lv5     Lv   0.09548   0.96346   0.62401   1.000
    Lv6     Lv   0.90455   0.03676   0.37594   1.000
    Lv7     Lv   0.54970   0.61555   0.42398   1.000
