# CIF file generated by openbabel 2.4.90, see http://openbabel.sf.net
data_I
_chemical_name_common ''
_cell_length_a 11.736
_cell_length_b 14.229
_cell_length_c 14.35
_cell_angle_alpha 76.733
_cell_angle_beta 89.878
_cell_angle_gamma 65.675
_space_group_name_H-M_alt 'P 1'
_space_group_name_Hall 'P 1'
loop_
    _symmetry_equiv_pos_as_xyz
    x,y,z
loop_
    _atom_site_label
    _atom_site_type_symbol
    _atom_site_fract_x
    _atom_site_fract_y
    _atom_site_fract_z
    _atom_site_occupancy
    Cd0     Cd   0.43987   0.46254   0.12589   1.000
    Cd1     Cd   0.09712   0.46259   0.62589   1.000
    Cd2     Cd   0.56015   0.53741   0.87406   1.000
    Cd3     Cd   0.90289   0.53736   0.37407   1.000
    C4      C    0.83643   0.63606   0.15024   1.000
    C5      C    0.63574   0.57768   0.07637   1.000
    C6      C    0.47295   0.36414   0.34952   1.000
    C7      C    0.21384   0.42197   0.42341   1.000
    C8      C    0.16358   0.36389   0.84971   1.000
    C9      C    0.36427   0.42227   0.92358   1.000
    C10     C    0.52706   0.63580   0.65043   1.000
    C11     C    0.78617   0.57799   0.57654   1.000
    O12     O    0.89045   0.54690   0.21408   1.000
    O13     O    0.80011   0.72836   0.15994   1.000
    O14     O    0.61234   0.61604   0.14752   1.000
    O15     O    0.58535   0.52173   0.04893   1.000
    O16     O    0.43706   0.45344   0.28570   1.000
    O17     O    0.52975   0.27195   0.33977   1.000
    O18     O    0.22942   0.38303   0.35260   1.000
    O19     O    0.10736   0.47814   0.45061   1.000
    O20     O    0.10955   0.45305   0.78587   1.000
    O21     O    0.19989   0.27159   0.84001   1.000
    O22     O    0.38767   0.38392   0.85242   1.000
    O23     O    0.41465   0.47823   0.95101   1.000
    O24     O    0.56301   0.54650   0.71425   1.000
    O25     O    0.47024   0.72799   0.66019   1.000
    O26     O    0.77058   0.61696   0.64733   1.000
    O27     O    0.89265   0.52182   0.54935   1.000
    Ts28    Ts   0.49329   0.40462   0.12650   1.000
    Ts29    Ts   0.38649   0.52132   0.12256   1.000
    Ts30    Ts   0.38526   0.44453   0.11005   1.000
    Ts31    Ts   0.16971   0.44459   0.60997   1.000
    Ts32    Ts   0.10156   0.40471   0.62659   1.000
    Ts33    Ts   0.09178   0.52131   0.62256   1.000
    Ts34    Ts   0.61476   0.55542   0.88990   1.000
    Ts35    Ts   0.50673   0.59533   0.87344   1.000
    Ts36    Ts   0.61353   0.47863   0.87739   1.000
    Ts37    Ts   0.89846   0.59523   0.37336   1.000
    Ts38    Ts   0.90823   0.47864   0.37739   1.000
    Ts39    Ts   0.83031   0.55536   0.38999   1.000
    Og40    Og   0.83256   0.63175   0.11637   1.000
    Og41    Og   0.66765   0.58441   0.05546   1.000
    Og42    Og   0.46466   0.36838   0.38339   1.000
    Og43    Og   0.25231   0.41537   0.44431   1.000
    Og44    Og   0.16745   0.36820   0.88358   1.000
    Og45    Og   0.33236   0.41555   0.94449   1.000
    Og46    Og   0.53536   0.63156   0.61656   1.000
    Og47    Og   0.74770   0.58459   0.55564   1.000
loop_
    _geom_bond_atom_site_label_1
    _geom_bond_atom_site_label_2
    _geom_bond_distance
    _geom_bond_site_symmetry_2
    _ccdc_geom_bond_type
    O15    C5        1.29276      .   S
    O15    Cd0       2.36517      .   S
    C5     O14       1.24366      .   S
    Cd0    O16       2.26804      .   S
    C4     O13       1.24439      .   S
    C4     O12       1.28725      .   S
    O12    Cd3       2.26992      .   S
    O16    C6        1.28728      .   S
    O17    C6        1.24433      .   S
    O18    C7        1.24382      .   S
    Cd3    O19       2.36545  1_655   S
    C7     O19       1.29271      .   S
    O27    C11       1.29271      .   S
    O27    Cd1       2.36542  1_655   S
    C11    O26       1.24380      .   S
    Cd1    O20       2.26990      .   S
    C10    O25       1.24434      .   S
    C10    O24       1.28729      .   S
    O24    Cd2       2.26804      .   S
    O20    C8        1.28724      .   S
    O21    C8        1.24439      .   S
    O22    C9        1.24367      .   S
    Cd2    O23       2.36523      .   S
    C9     O23       1.29274      .   S
    O15    Cd2       2.47515  1_554   S
    O19    Cd1       2.48088      .   S
    O23    Cd0       2.47519  1_556   S
    O27    Cd3       2.48101      .   S
    Cd0    Ts28      0.80214      .   S
    Cd0    Ts29      0.80269      .   S
    Cd0    Ts30      0.83108      .   S
    Cd1    Ts31      0.83046      .   S
    Cd1    Ts32      0.80115      .   S
    Cd1    Ts33      0.80172      .   S
    Cd2    Ts34      0.83108      .   S
    Cd2    Ts35      0.80214      .   S
    Cd2    Ts36      0.80270      .   S
    Cd3    Ts37      0.80114      .   S
    Cd3    Ts38      0.80172      .   S
    Cd3    Ts39      0.83043      .   S
    C4     Og40      0.50795      .   S
    C5     Og41      0.50529      .   S
    C6     Og42      0.50775      .   S
    C7     Og43      0.50531      .   S
    C8     Og44      0.50795      .   S
    C9     Og45      0.50530      .   S
    C10    Og46      0.50775      .   S
    C11    Og47      0.50531      .   S
