# CIF file generated by openbabel 2.4.90, see http://openbabel.sf.net
data_I
_chemical_name_common ''
_cell_length_a 11.736
_cell_length_b 14.229
_cell_length_c 14.35
_cell_angle_alpha 76.733
_cell_angle_beta 89.878
_cell_angle_gamma 65.675
_space_group_name_H-M_alt 'P 1'
_space_group_name_Hall 'P 1'
loop_
    _symmetry_equiv_pos_as_xyz
    x,y,z
loop_
    _atom_site_label
    _atom_site_type_symbol
    _atom_site_fract_x
    _atom_site_fract_y
    _atom_site_fract_z
    _atom_site_occupancy
    Cd0     Cd   0.43987   0.46254   0.12589   1.000
    Cd1     Cd   0.09712   0.46259   0.62589   1.000
    Cd2     Cd   0.56015   0.53741   0.87406   1.000
    Cd3     Cd   0.90289   0.53736   0.37407   1.000
    C4      C    0.83643   0.63606   0.15024   1.000
    C5      C    0.63574   0.57768   0.07637   1.000
    C6      C    0.47295   0.36414   0.34952   1.000
    C7      C    0.21384   0.42197   0.42341   1.000
    C8      C    0.16358   0.36389   0.84971   1.000
    C9      C    0.36427   0.42227   0.92358   1.000
    C10     C    0.52706   0.63580   0.65043   1.000
    C11     C    0.78617   0.57799   0.57654   1.000
    O12     O    0.89045   0.54690   0.21408   1.000
    O13     O    0.80011   0.72836   0.15994   1.000
    O14     O    0.61234   0.61604   0.14752   1.000
    O15     O    0.58535   0.52173   0.04893   1.000
    O16     O    0.43706   0.45344   0.28570   1.000
    O17     O    0.52975   0.27195   0.33977   1.000
    O18     O    0.22942   0.38303   0.35260   1.000
    O19     O    0.10736   0.47814   0.45061   1.000
    O20     O    0.10955   0.45305   0.78587   1.000
    O21     O    0.19989   0.27159   0.84001   1.000
    O22     O    0.38767   0.38392   0.85242   1.000
    O23     O    0.41465   0.47823   0.95101   1.000
    O24     O    0.56301   0.54650   0.71425   1.000
    O25     O    0.47024   0.72799   0.66019   1.000
    O26     O    0.77058   0.61696   0.64733   1.000
    O27     O    0.89265   0.52182   0.54935   1.000
loop_
    _geom_bond_atom_site_label_1
    _geom_bond_atom_site_label_2
    _geom_bond_distance
    _geom_bond_site_symmetry_2
    _ccdc_geom_bond_type
    O15    C5        1.29276      .   S
    O15    Cd0       2.36517      .   S
    C5     O14       1.24366      .   S
    Cd0    O16       2.26804      .   S
    C4     O13       1.24439      .   S
    C4     O12       1.28725      .   S
    O12    Cd3       2.26992      .   S
    O16    C6        1.28728      .   S
    O17    C6        1.24433      .   S
    O18    C7        1.24382      .   S
    Cd3    O19       2.36545  1_655   S
    C7     O19       1.29271      .   S
    O27    C11       1.29271      .   S
    O27    Cd1       2.36542  1_655   S
    C11    O26       1.24380      .   S
    Cd1    O20       2.26990      .   S
    C10    O25       1.24434      .   S
    C10    O24       1.28729      .   S
    O24    Cd2       2.26804      .   S
    O20    C8        1.28724      .   S
    O21    C8        1.24439      .   S
    O22    C9        1.24367      .   S
    Cd2    O23       2.36523      .   S
    C9     O23       1.29274      .   S
    O15    Cd2       2.47515  1_554   S
    O19    Cd1       2.48088      .   S
    O23    Cd0       2.47519  1_556   S
    O27    Cd3       2.48101      .   S
