# CIF file generated by openbabel 2.4.90, see http://openbabel.sf.net
data_I
_chemical_name_common ''
_cell_length_a 11.736
_cell_length_b 14.229
_cell_length_c 14.35
_cell_angle_alpha 76.733
_cell_angle_beta 89.878
_cell_angle_gamma 65.675
_space_group_name_H-M_alt 'P 1'
_space_group_name_Hall 'P 1'
loop_
    _symmetry_equiv_pos_as_xyz
    x,y,z
loop_
    _atom_site_label
    _atom_site_type_symbol
    _atom_site_fract_x
    _atom_site_fract_y
    _atom_site_fract_z
    _atom_site_occupancy
    C0      C    0.83643   0.63606   0.15024   1.000
    C1      C    0.63574   0.57768   0.07637   1.000
    C2      C    0.47295   0.36414   0.34952   1.000
    C3      C    0.21384   0.42197   0.42341   1.000
    C4      C    0.16358   0.36389   0.84971   1.000
    C5      C    0.36427   0.42227   0.92358   1.000
    C6      C    0.52706   0.63580   0.65043   1.000
    C7      C    0.78617   0.57799   0.57654   1.000
