# CIF file generated by openbabel 2.4.90, see http://openbabel.sf.net
data_I
_chemical_name_common ''
_cell_length_a 6.8215
_cell_length_b 9.31303
_cell_length_c 10.182
_cell_angle_alpha 67.1916
_cell_angle_beta 81.405
_cell_angle_gamma 73.3754
_space_group_name_H-M_alt 'P 1'
_space_group_name_Hall 'P 1'
loop_
    _symmetry_equiv_pos_as_xyz
    x,y,z
loop_
    _atom_site_label
    _atom_site_type_symbol
    _atom_site_fract_x
    _atom_site_fract_y
    _atom_site_fract_z
    _atom_site_occupancy
    H0      H    0.24405   0.91261   0.23993   1.000
    H1      H    0.27525   0.89274   0.66703   1.000
    H2      H    0.22222   0.47729   0.59839   1.000
    H3      H    0.75608   0.08730   0.76007   1.000
    H4      H    0.72489   0.10719   0.33296   1.000
    H5      H    0.77789   0.52263   0.40162   1.000
    C6      C    0.23720   0.68577   0.40905   1.000
    C7      C    0.25045   0.67546   0.64933   1.000
    C8      C    0.24606   0.84689   0.35469   1.000
    C9      C    0.26309   0.83538   0.59466   1.000
    C10     C    0.23436   0.60127   0.55667   1.000
    C11     C    0.25608   0.92270   0.44743   1.000
    C12     C    0.76294   0.31414   0.59096   1.000
    C13     C    0.74971   0.32445   0.35067   1.000
    C14     C    0.75408   0.15303   0.64531   1.000
    C15     C    0.73706   0.16454   0.40534   1.000
    C16     C    0.76577   0.39865   0.44334   1.000
    C17     C    0.74407   0.07722   0.55256   1.000
loop_
    _geom_bond_atom_site_label_1
    _geom_bond_atom_site_label_2
    _geom_bond_distance
    _geom_bond_site_symmetry_2
    _ccdc_geom_bond_type
    H0     C8        1.08888      .   S
    H4     C15       1.08815      .   S
    C13    C15       1.39695      .   S
    C13    C16       1.39983      .   S
    C8     C6        1.39983      .   S
    C8     C11       1.39949      .   S
    H5     C16       1.08826      .   S
    C15    C17       1.40174      .   S
    C6     C10       1.40066      .   S
    C16    C12       1.40066      .   S
    C11    C9        1.40173      .   S
    C17    C14       1.39949      .   S
    C10    H2        1.08828      .   S
    C10    C7        1.39983      .   S
    C12    C14       1.39981      .   S
    C9     C7        1.39702      .   S
    C9     H1        1.08812      .   S
    C14    H3        1.08889      .   S
