# CIF file generated by openbabel 2.4.90, see http://openbabel.sf.net
data_I
_chemical_name_common ''
_cell_length_a 6.8215
_cell_length_b 9.31303
_cell_length_c 10.182
_cell_angle_alpha 67.1916
_cell_angle_beta 81.405
_cell_angle_gamma 73.3754
_space_group_name_H-M_alt 'P 1'
_space_group_name_Hall 'P 1'
loop_
    _symmetry_equiv_pos_as_xyz
    x,y,z
loop_
    _atom_site_label
    _atom_site_type_symbol
    _atom_site_fract_x
    _atom_site_fract_y
    _atom_site_fract_z
    _atom_site_occupancy
    H0      H    0.25014   0.27293   0.44622   1.000
    H1      H    0.74998   0.72700   0.55378   1.000
    C2      C    0.25778   0.09531   0.38989   1.000
    C3      C    0.22975   0.60575   0.30800   1.000
    C4      C    0.25407   0.58792   0.80714   1.000
    C5      C    0.74238   0.90460   0.61010   1.000
    C6      C    0.77034   0.39418   0.69201   1.000
    C7      C    0.74607   0.41200   0.19287   1.000
    O8      O    0.22454   0.45672   0.35874   1.000
    O9      O    0.38710   0.59968   0.87596   1.000
    O10     O    0.25640   0.15343   0.49021   1.000
    O11     O    0.12312   0.50625   0.87174   1.000
    O12     O    0.25896   0.17678   0.25979   1.000
    O13     O    0.23020   0.68490   0.17506   1.000
    O14     O    0.77554   0.54321   0.64127   1.000
    O15     O    0.61302   0.40026   0.12405   1.000
    O16     O    0.74373   0.84649   0.50979   1.000
    O17     O    0.87698   0.49370   0.12827   1.000
    O18     O    0.74115   0.82314   0.74020   1.000
    O19     O    0.76987   0.31503   0.82495   1.000
loop_
    _geom_bond_atom_site_label_1
    _geom_bond_atom_site_label_2
    _geom_bond_distance
    _geom_bond_site_symmetry_2
    _ccdc_geom_bond_type
    O15    C7        1.27788      .   S
    O17    C7        1.27838      .   S
    O13    C3        1.26576      .   S
    O12    C2        1.24563      .   S
    C3     O8        1.28896      .   S
    C2     O10       1.32636      .   S
    H0     O10       1.01635      .   S
    O16    H1        1.01636      .   S
    O16    C5        1.32635      .   S
    C5     O18       1.24562      .   S
    O14    C6        1.28894      .   S
    C6     O19       1.26577      .   S
    C4     O11       1.27839      .   S
    C4     O9        1.27789      .   S
