# CIF file generated by openbabel 2.4.90, see http://openbabel.sf.net
data_I
_chemical_name_common ''
_cell_length_a 6.8215
_cell_length_b 9.31303
_cell_length_c 10.182
_cell_angle_alpha 67.1916
_cell_angle_beta 81.405
_cell_angle_gamma 73.3754
_space_group_name_H-M_alt 'P 1'
_space_group_name_Hall 'P 1'
loop_
    _symmetry_equiv_pos_as_xyz
    x,y,z
loop_
    _atom_site_label
    _atom_site_type_symbol
    _atom_site_fract_x
    _atom_site_fract_y
    _atom_site_fract_z
    _atom_site_occupancy
    Zr0     Zr   0.24475   0.45511   0.11792   1.000
    Zr1     Zr   0.75536   0.54482   0.88208   1.000
    N2      N    0.75250   0.23879   0.49809   1.000
    N3      N    0.24764   0.76112   0.50191   1.000
    C4      C    0.77191   0.41747   0.71941   1.000
    O5      O    0.76726   0.42370   0.78646   1.000
    O6      O    0.76574   0.35698   0.64460   1.000
    O7      O    0.76868   0.48075   0.74054   1.000
    C8      C    0.74536   0.43532   0.14839   1.000
    O9      O    0.58712   0.43150   0.13469   1.000
    O10     O    0.71477   0.45393   0.07573   1.000
    O11     O    0.74777   0.36941   0.26666   1.000
    O12     O    0.90311   0.45486   0.13574   1.000
    O13     O    0.78076   0.47729   0.07678   1.000
    C14     C    0.74431   0.82531   0.60347   1.000
    O15     O    0.74628   0.75464   0.70730   1.000
    O16     O    0.74608   0.97008   0.57159   1.000
    C17     C    0.25582   0.17461   0.39653   1.000
    O18     O    0.25405   0.02984   0.42841   1.000
    O19     O    0.25384   0.24528   0.29269   1.000
    C20     C    0.22817   0.58246   0.28060   1.000
    O21     O    0.23282   0.57623   0.21354   1.000
    O22     O    0.23436   0.64295   0.35541   1.000
    O23     O    0.23141   0.51919   0.25946   1.000
    C24     C    0.25476   0.56462   0.85161   1.000
    O25     O    0.25236   0.63051   0.73334   1.000
    O26     O    0.09700   0.54508   0.86426   1.000
    O27     O    0.21935   0.52265   0.92322   1.000
    O28     O    0.28534   0.54601   0.92428   1.000
    O29     O    0.41300   0.56843   0.86532   1.000
loop_
    _geom_bond_atom_site_label_1
    _geom_bond_atom_site_label_2
    _geom_bond_distance
    _geom_bond_site_symmetry_2
    _ccdc_geom_bond_type
    C4     O5        0.70263      .   S
    Zr1    O5        1.73271      .   S
    C4     O6        1.12042      .   S
    N2     O6        2.19429      .   S
    C4     O7        0.69530      .   S
    Zr1    O7        1.74297      .   S
    C8     O9        1.12101      .   S
    Zr0    O9        2.30827      .   S
    C8     O10       0.73959      .   S
    Zr1    O10       1.83241  1_556   S
    C8     O11       1.11992      .   S
    N2     O11       2.19349      .   S
    C8     O12       1.12261      .   S
    Zr0    O12       2.31097  1_455   S
    C8     O13       0.72330      .   S
    Zr1    O13       1.85185  1_556   S
    C14    O15       1.00541      .   S
    Zr1    O15       2.06323      .   S
    C14    O16       1.26183      .   S
    N2     O16       2.32928  1_545   S
    C17    O18       1.26183      .   S
    N3     O18       2.32929  1_565   S
    C17    O19       1.00540      .   S
    Zr0    O19       2.06323      .   S
    C20    O21       0.70261      .   S
    Zr0    O21       1.73267      .   S
    C20    O22       1.12041      .   S
    N3     O22       2.19427      .   S
    C20    O23       0.69529      .   S
    Zr0    O23       1.74292      .   S
    C24    O25       1.11993      .   S
    N3     O25       2.19351      .   S
    C24    O26       1.12263      .   S
    Zr1    O26       2.31100  1_655   S
    C24    O27       0.72330      .   S
    Zr0    O27       1.85182  1_554   S
    C24    O28       0.73959      .   S
    Zr0    O28       1.83239  1_554   S
    C24    O29       1.12099      .   S
    Zr1    O29       2.30822      .   S
