# CIF file generated by openbabel 2.4.90, see http://openbabel.sf.net
data_I
_chemical_name_common ''
_cell_length_a 6.8215
_cell_length_b 9.31303
_cell_length_c 10.182
_cell_angle_alpha 67.1916
_cell_angle_beta 81.405
_cell_angle_gamma 73.3754
_space_group_name_H-M_alt 'P 1'
_space_group_name_Hall 'P 1'
loop_
    _symmetry_equiv_pos_as_xyz
    x,y,z
loop_
    _atom_site_label
    _atom_site_type_symbol
    _atom_site_fract_x
    _atom_site_fract_y
    _atom_site_fract_z
    _atom_site_occupancy
    Zr0     Zr   0.24475   0.45511   0.11792   1.000
    Zr1     Zr   0.75536   0.54482   0.88208   1.000
    Zr2     Zr   0.25014   0.27293   0.44622   1.000
    Zr3     Zr   0.74998   0.72700   0.55378   1.000
    Zr4     Zr   0.25778   0.09531   0.38989   1.000
    Zr5     Zr   0.22975   0.60575   0.30800   1.000
    Zr6     Zr   0.25407   0.58792   0.80714   1.000
    Zr7     Zr   0.74238   0.90460   0.61010   1.000
    Zr8     Zr   0.77034   0.39418   0.69201   1.000
    Zr9     Zr   0.74607   0.41200   0.19287   1.000
    Zr10    Zr   0.22454   0.45672   0.35874   1.000
    Zr11    Zr   0.38710   0.59968   0.87596   1.000
    Zr12    Zr   0.25640   0.15343   0.49021   1.000
    Zr13    Zr   0.12312   0.50625   0.87174   1.000
    Zr14    Zr   0.25896   0.17678   0.25979   1.000
    Zr15    Zr   0.23020   0.68490   0.17506   1.000
    Zr16    Zr   0.77554   0.54321   0.64127   1.000
    Zr17    Zr   0.61302   0.40026   0.12405   1.000
    Zr18    Zr   0.74373   0.84649   0.50979   1.000
    Zr19    Zr   0.87698   0.49370   0.12827   1.000
    Zr20    Zr   0.74115   0.82314   0.74020   1.000
    Zr21    Zr   0.76987   0.31503   0.82495   1.000
    O22     O    0.23748   0.57001   0.14649   1.000
    O23     O    0.25186   0.31595   0.18886   1.000
    O24     O    0.67954   0.40613   0.15846   1.000
    O25     O    0.81153   0.45285   0.16057   1.000
    O26     O    0.22998   0.64533   0.24153   1.000
    O27     O    0.25837   0.13605   0.32484   1.000
    O28     O    0.22715   0.53123   0.33337   1.000
    O29     O    0.25709   0.12437   0.44005   1.000
    O30     O    0.25327   0.21318   0.46821   1.000
    O31     O    0.74685   0.78674   0.53178   1.000
    O32     O    0.74305   0.87555   0.55994   1.000
    O33     O    0.74176   0.86387   0.67515   1.000
    O34     O    0.77294   0.46869   0.66664   1.000
    O35     O    0.77010   0.35461   0.75848   1.000
    O36     O    0.74825   0.68398   0.81114   1.000
    O37     O    0.18860   0.54709   0.83944   1.000
    O38     O    0.32058   0.59380   0.84155   1.000
    O39     O    0.76261   0.42993   0.85352   1.000
    O40     O    0.23465   0.45592   0.23833   1.000
    O41     O    0.31593   0.52740   0.99694   1.000
    O42     O    0.57123   0.57225   0.87902   1.000
    O43     O    0.18394   0.48068   0.99483   1.000
    O44     O    0.93924   0.52554   0.87691   1.000
    O45     O    0.76545   0.54402   0.76167   1.000
    O46     O    0.42889   0.42769   0.12098   1.000
    O47     O    0.68419   0.47254   0.00307   1.000
    O48     O    0.06087   0.47441   0.12309   1.000
    O49     O    0.81617   0.51926   0.00518   1.000
    N50     N    0.75250   0.23879   0.49809   1.000
    O51     O    0.74786   0.11485   0.53971   1.000
    O52     O    0.75957   0.29648   0.56979   1.000
    O53     O    0.75019   0.30351   0.38493   1.000
    N54     N    0.24764   0.76112   0.50191   1.000
    O55     O    0.24056   0.70344   0.43022   1.000
    O56     O    0.25228   0.88506   0.46029   1.000
    O57     O    0.24995   0.69641   0.61507   1.000
loop_
    _geom_bond_atom_site_label_1
    _geom_bond_atom_site_label_2
    _geom_bond_distance
    _geom_bond_site_symmetry_2
    _ccdc_geom_bond_type
    Zr0    O22       1.19942      .   S
    Zr15   O22       1.19942      .   S
    Zr0    O23       1.20522      .   S
    Zr14   O23       1.20522      .   S
    Zr17   O24       0.63894      .   S
    Zr9    O24       0.63894      .   S
    Zr19   O25       0.63919      .   S
    Zr9    O25       0.63919      .   S
    Zr15   O26       0.63288      .   S
    Zr5    O26       0.63288      .   S
    Zr14   O27       0.62281      .   S
    Zr4    O27       0.62281      .   S
    Zr5    O28       0.64448      .   S
    Zr10   O28       0.64448      .   S
    Zr4    O29       0.66318      .   S
    Zr12   O29       0.66318      .   S
    Zr2    O30       0.50817      .   S
    Zr12   O30       0.50817      .   S
    Zr18   O31       0.50818      .   S
    Zr3    O31       0.50818      .   S
    Zr18   O32       0.66318      .   S
    Zr7    O32       0.66318      .   S
    Zr7    O33       0.62281      .   S
    Zr20   O33       0.62281      .   S
    Zr16   O34       0.64447      .   S
    Zr8    O34       0.64447      .   S
    Zr8    O35       0.63289      .   S
    Zr21   O35       0.63289      .   S
    Zr20   O36       1.20519      .   S
    Zr1    O36       1.20519      .   S
    Zr6    O37       0.63919      .   S
    Zr13   O37       0.63919      .   S
    Zr6    O38       0.63894      .   S
    Zr11   O38       0.63894      .   S
    Zr21   O39       1.19943      .   S
    Zr1    O39       1.19943      .   S
    Zr10   O40       1.22041      .   S
    Zr0    O40       1.22041      .   S
    Zr11   O41       1.25362      .   S
    Zr0    O41       1.25362  1_554   S
    Zr11   O42       1.21070      .   S
    Zr1    O42       1.21070      .   S
    Zr13   O43       1.29116      .   S
    Zr0    O43       1.29116  1_554   S
    Zr13   O44       1.21125  1_455   S
    Zr1    O44       1.21125      .   S
    Zr16   O45       1.22044      .   S
    Zr1    O45       1.22044      .   S
    Zr17   O46       1.21072      .   S
    Zr0    O46       1.21072      .   S
    Zr17   O47       1.25363      .   S
    Zr1    O47       1.25363  1_556   S
    Zr19   O48       1.21125  1_655   S
    Zr0    O48       1.21125      .   S
    Zr19   O49       1.29118      .   S
    Zr1    O49       1.29118  1_556   S
    N50    O51       1.07265      .   S
    Zr7    O51       1.81519  1_565   S
    N50    O52       1.07388      .   S
    Zr8    O52       1.82355      .   S
    N50    O53       1.07362      .   S
    Zr9    O53       1.82052      .   S
    N54    O55       1.07387      .   S
    Zr5    O55       1.82353      .   S
    N54    O56       1.07266      .   S
    Zr4    O56       1.81520  1_545   S
    N54    O57       1.07364      .   S
    Zr6    O57       1.82053      .   S
