# CIF file generated by openbabel 2.4.90, see http://openbabel.sf.net
data_I
_chemical_name_common ''
_cell_length_a 22.222
_cell_length_b 16.168
_cell_length_c 15.922
_cell_angle_alpha 89.998
_cell_angle_beta 91.136
_cell_angle_gamma 89.999
_space_group_name_H-M_alt 'P 1'
_space_group_name_Hall 'P 1'
loop_
    _symmetry_equiv_pos_as_xyz
    x,y,z
loop_
    _atom_site_label
    _atom_site_type_symbol
    _atom_site_fract_x
    _atom_site_fract_y
    _atom_site_fract_z
    _atom_site_occupancy
    N0      N    0.50000   0.00000   0.49997   1.000
    N1      N    0.00000   0.00000   0.49998   1.000
    N2      N    0.25000   0.50000   0.99994   1.000
    N3      N    0.75001   0.50000   0.99997   1.000
    Zr4     Zr   0.75001   0.50000   0.49998   1.000
    O5      O    0.82058   0.63629   0.48006   1.000
    O6      O    0.82058   0.36371   0.48006   1.000
    O7      O    0.67935   0.36369   0.48048   1.000
    O8      O    0.74924   0.50000   0.33712   1.000
    O9      O    0.67935   0.63632   0.48048   1.000
    O10     O    0.82066   0.36369   0.51948   1.000
    O11     O    0.82066   0.63632   0.51948   1.000
    O12     O    0.67943   0.36371   0.51990   1.000
    O13     O    0.75077   0.50000   0.66283   1.000
    O14     O    0.67943   0.63629   0.51990   1.000
    Zr15    Zr   0.25000   0.50000   0.49998   1.000
    O16     O    0.17935   0.36369   0.48048   1.000
    O17     O    0.32058   0.63629   0.48005   1.000
    O18     O    0.32058   0.36371   0.48005   1.000
    O19     O    0.17935   0.63632   0.48048   1.000
    O20     O    0.24924   0.50001   0.33711   1.000
    O21     O    0.17943   0.36371   0.51990   1.000
    O22     O    0.32066   0.36369   0.51948   1.000
    O23     O    0.17943   0.63629   0.51990   1.000
    O24     O    0.25076   0.50000   0.66282   1.000
    O25     O    0.32066   0.63632   0.51948   1.000
loop_
    _geom_bond_atom_site_label_1
    _geom_bond_atom_site_label_2
    _geom_bond_distance
    _geom_bond_site_symmetry_2
    _ccdc_geom_bond_type
    Zr4    O5        2.72679      .   S
    N1     O5        7.10837  1_445   S
    Zr4    O6        2.72676      .   S
    N1     O6        7.10826  1_455   S
    Zr4    O7        2.72028      .   S
    N0     O7        7.11370      .   S
    Zr4    O8        2.59283      .   S
    N3     O8        5.36838  1_556   S
    Zr4    O9        2.72021      .   S
    N0     O9        7.11359  1_545   S
    Zr4    O10       2.72020      .   S
    N1     O10       7.11357  1_455   S
    Zr4    O11       2.72026      .   S
    N1     O11       7.11366  1_445   S
    Zr4    O12       2.72680      .   S
    N0     O12       7.10842      .   S
    Zr4    O13       2.59267      .   S
    N3     O13       5.36829      .   S
    Zr4    O14       2.72676      .   S
    N0     O14       7.10829  1_545   S
    Zr15   O16       2.72027      .   S
    N1     O16       7.11368      .   S
    Zr15   O17       2.72680      .   S
    N0     O17       7.10841  1_545   S
    Zr15   O18       2.72677      .   S
    N0     O18       7.10830      .   S
    Zr15   O19       2.72021      .   S
    N1     O19       7.11357  1_545   S
    Zr15   O20       2.59296      .   S
    N2     O20       5.36878  1_556   S
    Zr15   O21       2.72680      .   S
    N1     O21       7.10840      .   S
    Zr15   O22       2.72021      .   S
    N0     O22       7.11360      .   S
    Zr15   O23       2.72675      .   S
    N1     O23       7.10827  1_545   S
    Zr15   O24       2.59253      .   S
    N2     O24       5.36789      .   S
    Zr15   O25       2.72027      .   S
    N0     O25       7.11370  1_545   S
