# CIF file generated by openbabel 2.4.90, see http://openbabel.sf.net
data_I
_chemical_name_common ''
_cell_length_a 20.994
_cell_length_b 18.038
_cell_length_c 18.041
_cell_angle_alpha 120.021
_cell_angle_beta 90.005
_cell_angle_gamma 89.982
_space_group_name_H-M_alt 'P 1'
_space_group_name_Hall 'P 1'
loop_
    _symmetry_equiv_pos_as_xyz
    x,y,z
loop_
    _atom_site_label
    _atom_site_type_symbol
    _atom_site_fract_x
    _atom_site_fract_y
    _atom_site_fract_z
    _atom_site_occupancy
    H0      H    0.41789   0.55159   0.48012   1.000
    H1      H    0.91790   0.55159   0.48013   1.000
    H2      H    0.30321   0.62548   0.47530   1.000
    H3      H    0.80322   0.62548   0.47530   1.000
    H4      H    0.29739   0.52215   0.32640   1.000
    H5      H    0.79740   0.52215   0.32647   1.000
    H6      H    0.37304   0.40290   0.25138   1.000
    H7      H    0.87305   0.40291   0.25130   1.000
    H8      H    0.32664   0.38854   0.32533   1.000
    H9      H    0.82665   0.38854   0.32533   1.000
    H10     H    0.40640   0.42214   0.35048   1.000
    H11     H    0.90641   0.42214   0.35048   1.000
    H12     H    0.43631   0.57976   0.37533   1.000
    H13     H    0.93632   0.57976   0.37530   1.000
    H14     H    0.37267   0.64458   0.37520   1.000
    H15     H    0.87268   0.64459   0.37522   1.000
    H16     H    0.39652   0.55332   0.27815   1.000
    H17     H    0.89653   0.55332   0.27815   1.000
    H18     H    0.33713   0.88682   0.55193   1.000
    H19     H    0.83714   0.88682   0.55193   1.000
    H20     H    0.02064   0.79042   0.49520   1.000
    H21     H    0.52064   0.79042   0.49520   1.000
    H22     H    0.30549   0.78245   0.59801   1.000
    H23     H    0.80550   0.78244   0.59801   1.000
    H24     H    0.49758   0.68202   0.53801   1.000
    H25     H    0.99759   0.68202   0.53801   1.000
    H26     H    0.33634   0.66719   0.62570   1.000
    H27     H    0.83635   0.66719   0.62574   1.000
    H28     H    0.41884   0.64581   0.62909   1.000
    H29     H    0.91885   0.64581   0.62909   1.000
    H30     H    0.25126   0.92852   0.44854   1.000
    H31     H    0.75127   0.92852   0.44854   1.000
    H32     H    0.13665   0.84972   0.37473   1.000
    H33     H    0.63666   0.84972   0.37473   1.000
    H34     H    0.13078   0.80441   0.47817   1.000
    H35     H    0.63079   0.80441   0.47817   1.000
    H36     H    0.20638   0.84888   0.59751   1.000
    H37     H    0.70639   0.84888   0.59751   1.000
    H38     H    0.15991   0.93710   0.61165   1.000
    H39     H    0.65992   0.93710   0.61165   1.000
    H40     H    0.23968   0.92864   0.57810   1.000
    H41     H    0.73970   0.92864   0.57810   1.000
    H42     H    0.26973   0.79560   0.42062   1.000
    H43     H    0.76974   0.79560   0.42062   1.000
    H44     H    0.20612   0.73060   0.35580   1.000
    H45     H    0.70613   0.73060   0.35580   1.000
    H46     H    0.22992   0.72491   0.44709   1.000
    H47     H    0.72993   0.72491   0.44709   1.000
    H48     H    0.17038   0.66510   0.11345   1.000
    H49     H    0.67039   0.66511   0.11345   1.000
    H50     H    0.35389   0.70464   0.20974   1.000
    H51     H    0.85390   0.70464   0.20974   1.000
    H52     H    0.13872   0.81563   0.21793   1.000
    H53     H    0.63874   0.81563   0.21793   1.000
    H54     H    0.33081   0.85592   0.31823   1.000
    H55     H    0.83082   0.85592   0.31823   1.000
    H56     H    0.16957   0.95861   0.33316   1.000
    H57     H    0.66958   0.95861   0.33316   1.000
    H58     H    0.25207   0.98333   0.35439   1.000
    H59     H    0.75209   0.98333   0.35439   1.000
    H60     H    0.08454   0.51999   0.07155   1.000
    H61     H    0.58455   0.52000   0.07155   1.000
    H62     H    0.46990   0.52498   0.15029   1.000
    H63     H    0.96991   0.52498   0.15029   1.000
    H64     H    0.46407   0.67382   0.19569   1.000
    H65     H    0.96408   0.67382   0.19569   1.000
    H66     H    0.03976   0.74862   0.15127   1.000
    H67     H    0.53977   0.74862   0.15127   1.000
    H68     H    0.49330   0.67459   0.06305   1.000
    H69     H    0.99331   0.67459   0.06305   1.000
    H70     H    0.07304   0.64936   0.07100   1.000
    H71     H    0.57304   0.64936   0.07149   1.000
    H72     H    0.10299   0.62491   0.20449   1.000
    H73     H    0.60300   0.62492   0.20449   1.000
    H74     H    0.03936   0.62529   0.26954   1.000
    H75     H    0.53937   0.62529   0.26954   1.000
    H76     H    0.06321   0.72221   0.27513   1.000
    H77     H    0.56323   0.72221   0.27512   1.000
    H78     H    0.00374   0.44852   0.33503   1.000
    H79     H    0.50376   0.44852   0.33503   1.000
    H80     H    0.18725   0.50512   0.29538   1.000
    H81     H    0.68726   0.50512   0.29539   1.000
    H82     H    0.47209   0.40240   0.18455   1.000
    H83     H    0.97210   0.40240   0.18455   1.000
    H84     H    0.16417   0.46226   0.14414   1.000
    H85     H    0.66418   0.46226   0.14414   1.000
    H86     H    0.00293   0.37451   0.04155   1.000
    H87     H    0.50294   0.37451   0.04155   1.000
    C88     C    0.86328   0.42897   0.31980   1.000
    C89     C    0.38960   0.57821   0.34697   1.000
    C90     C    0.88961   0.57821   0.34697   1.000
    C91     C    0.37076   0.84000   0.54999   1.000
    H92     H    0.08543   0.37098   0.01679   1.000
    H93     H    0.58544   0.37098   0.01600   1.000
    H94     H    0.16791   0.44842   0.51988   1.000
    H95     H    0.66792   0.44842   0.51988   1.000
    H96     H    0.05327   0.37459   0.52475   1.000
    H97     H    0.55328   0.37459   0.52475   1.000
    H98     H    0.04743   0.47793   0.67356   1.000
    H99     H    0.54744   0.47793   0.67356   1.000
    H100    H    0.12300   0.59722   0.74862   1.000
    H101    H    0.62301   0.59722   0.74862   1.000
    H102    H    0.07656   0.61154   0.67467   1.000
    H103    H    0.57657   0.61154   0.67467   1.000
    H104    H    0.15633   0.57798   0.64952   1.000
    H105    H    0.65635   0.57798   0.64952   1.000
    H106    H    0.18638   0.42036   0.62468   1.000
    H107    H    0.68639   0.42036   0.62468   1.000
    H108    H    0.12278   0.35553   0.62482   1.000
    H109    H    0.62279   0.35553   0.62482   1.000
    H110    H    0.14660   0.44680   0.72180   1.000
    H111    H    0.64661   0.44680   0.72188   1.000
    H112    H    0.08710   0.11335   0.44820   1.000
    H113    H    0.58711   0.11335   0.44820   1.000
    H114    H    0.27064   0.20948   0.50479   1.000
    H115    H    0.77065   0.20948   0.50479   1.000
    H116    H    0.05549   0.21772   0.40208   1.000
    H117    H    0.55550   0.21772   0.40208   1.000
    H118    H    0.24762   0.31788   0.46193   1.000
    H119    H    0.74763   0.31788   0.46190   1.000
    C120    C    0.04799   0.41011   0.06218   1.000
    C121    C    0.54800   0.41012   0.06218   1.000
    C122    C    0.07146   0.43950   0.54577   1.000
    H123    H    0.08637   0.33289   0.37427   1.000
    H124    H    0.58639   0.33289   0.37427   1.000
    H125    H    0.16888   0.35421   0.37092   1.000
    H126    H    0.66889   0.35421   0.37093   1.000
    H127    H    0.50123   0.07147   0.55147   1.000
    H128    H    0.00000   0.07147   0.55147   1.000
    H129    H    0.38659   0.15029   0.62530   1.000
    H130    H    0.88660   0.15029   0.62530   1.000
    H131    H    0.38071   0.19560   0.52184   1.000
    H132    H    0.88072   0.19560   0.52184   1.000
    H133    H    0.45637   0.15113   0.40256   1.000
    H134    H    0.95638   0.15113   0.40250   1.000
    H135    H    0.40993   0.06291   0.38837   1.000
    H136    H    0.90994   0.06291   0.38837   1.000
    H137    H    0.48968   0.07137   0.42199   1.000
    H138    H    0.98969   0.07137   0.42199   1.000
    H139    H    0.01963   0.20442   0.57947   1.000
    H140    H    0.51964   0.20442   0.57947   1.000
    H141    H    0.45599   0.26943   0.64420   1.000
    H142    H    0.95600   0.26943   0.64420   1.000
    H143    H    0.47981   0.27511   0.55296   1.000
    H144    H    0.97983   0.27511   0.55296   1.000
    H145    H    0.42046   0.33498   0.88662   1.000
    H146    H    0.92046   0.33498   0.88662   1.000
    H147    H    0.10392   0.29525   0.79018   1.000
    H148    H    0.60393   0.29525   0.79018   1.000
    H149    H    0.38877   0.18449   0.78216   1.000
    H150    H    0.88878   0.18449   0.78216   1.000
    H151    H    0.08081   0.14401   0.68169   1.000
    H152    H    0.58082   0.14401   0.68169   1.000
    H153    H    0.41958   0.04148   0.66692   1.000
    H154    H    0.91959   0.04148   0.66692   1.000
    H155    H    0.00208   0.01668   0.64564   1.000
    H156    H    0.50209   0.01668   0.64564   1.000
    H157    H    0.33455   0.47998   0.92842   1.000
    H158    H    0.83456   0.47998   0.92842   1.000
    H159    H    0.21989   0.47504   0.84970   1.000
    H160    H    0.71990   0.47504   0.84970   1.000
    H161    H    0.21410   0.32619   0.80426   1.000
    H162    H    0.71412   0.32619   0.80426   1.000
    H163    H    0.28981   0.25133   0.84860   1.000
    H164    H    0.78982   0.25133   0.84860   1.000
    H165    H    0.24336   0.32538   0.93688   1.000
    H166    H    0.74337   0.32538   0.93688   1.000
    H167    H    0.32310   0.35055   0.92840   1.000
    H168    H    0.82311   0.35056   0.92840   1.000
    H169    H    0.35302   0.37502   0.79542   1.000
    H170    H    0.85303   0.37502   0.79542   1.000
    H171    H    0.28937   0.37472   0.73041   1.000
    H172    H    0.78939   0.37472   0.73041   1.000
    H173    H    0.31324   0.27776   0.72479   1.000
    H174    H    0.81325   0.27776   0.72479   1.000
    H175    H    0.25370   0.55163   0.66503   1.000
    H176    H    0.75371   0.55163   0.66503   1.000
    H177    H    0.43720   0.49484   0.70460   1.000
    H178    H    0.93721   0.49485   0.70460   1.000
    H179    H    0.22204   0.59772   0.81551   1.000
    H180    H    0.72205   0.59772   0.81551   1.000
    H181    H    0.41412   0.53768   0.85584   1.000
    H182    H    0.91414   0.53768   0.85584   1.000
    H183    H    0.25287   0.62549   0.95847   1.000
    H184    H    0.75288   0.62549   0.95847   1.000
    H185    H    0.33538   0.62899   0.98321   1.000
    H186    H    0.83539   0.62900   0.98320   1.000
    C187    C    0.32143   0.56056   0.45425   1.000
    C188    C    0.82144   0.56056   0.45425   1.000
    C189    C    0.34127   0.52205   0.35968   1.000
    C190    C    0.84128   0.52205   0.35968   1.000
    C191    C    0.36327   0.42897   0.31981   1.000
    C192    C    0.87077   0.84001   0.54999   1.000
    C193    C    0.47352   0.78555   0.51749   1.000
    C194    C    0.97353   0.78555   0.51749   1.000
    C195    C    0.35379   0.78149   0.57535   1.000
    C196    C    0.85380   0.78149   0.57535   1.000
    C197    C    0.39855   0.72162   0.57023   1.000
    C198    C    0.89857   0.72162   0.57023   1.000
    C199    C    0.45988   0.72549   0.54180   1.000
    C200    C    0.95989   0.72550   0.54187   1.000
    C201    C    0.38138   0.65216   0.59006   1.000
    C202    C    0.88139   0.65216   0.59006   1.000
    C203    C    0.15480   0.89370   0.43964   1.000
    C204    C    0.65481   0.89370   0.43964   1.000
    C205    C    0.17464   0.83773   0.47825   1.000
    C206    C    0.67465   0.83773   0.47825   1.000
    C207    C    0.19659   0.89113   0.57130   1.000
    C208    C    0.69660   0.89113   0.57130   1.000
    C209    C    0.22301   0.76881   0.42217   1.000
    C210    C    0.72303   0.76881   0.42217   1.000
    C211    C    0.20400   0.70997   0.16025   1.000
    C212    C    0.70401   0.70997   0.16025   1.000
    C213    C    0.30676   0.73185   0.21465   1.000
    C214    C    0.80677   0.73185   0.21465   1.000
    C215    C    0.18703   0.79388   0.21881   1.000
    C216    C    0.68704   0.79388   0.21881   1.000
    C217    C    0.23181   0.84861   0.27863   1.000
    C218    C    0.73182   0.84861   0.27863   1.000
    C219    C    0.29312   0.81631   0.27474   1.000
    C220    C    0.79314   0.81631   0.27474   1.000
    C221    C    0.21464   0.93794   0.34809   1.000
    C222    C    0.71466   0.93794   0.34809   1.000
    C223    C    0.48810   0.54593   0.10636   1.000
    C224    C    0.98810   0.54593   0.10636   1.000
    C225    C    0.00793   0.64052   0.16238   1.000
    C226    C    0.50794   0.64053   0.16238   1.000
    C227    C    0.02993   0.68017   0.10901   1.000
    C228    C    0.52994   0.68017   0.10901   1.000
    C229    C    0.05628   0.65336   0.23128   1.000
    C230    C    0.55629   0.65336   0.23128   1.000
    C231    C    0.03736   0.45041   0.29015   1.000
    C232    C    0.53738   0.45041   0.29015   1.000
    C233    C    0.14012   0.48283   0.26820   1.000
    C234    C    0.64013   0.48284   0.26821   1.000
    C235    C    0.02039   0.42503   0.20626   1.000
    C236    C    0.52040   0.42503   0.20626   1.000
    C237    C    0.06516   0.43005   0.15150   1.000
    C238    C    0.56517   0.43005   0.15150   1.000
    C239    C    0.12648   0.45843   0.18376   1.000
    C240    C    0.62649   0.45844   0.18370   1.000
    C241    C    0.57147   0.43950   0.54577   1.000
    C242    C    0.09129   0.47804   0.64030   1.000
    C243    C    0.59130   0.47804   0.64035   1.000
    C244    C    0.11323   0.57113   0.68019   1.000
    C245    C    0.61324   0.57114   0.68019   1.000
    C246    C    0.13967   0.42191   0.65300   1.000
    C247    C    0.63968   0.42191   0.65300   1.000
    C248    C    0.12074   0.16011   0.45010   1.000
    C249    C    0.62075   0.16011   0.45010   1.000
    C250    C    0.22351   0.21442   0.48252   1.000
    C251    C    0.72353   0.21442   0.48252   1.000
    C252    C    0.10379   0.21862   0.42472   1.000
    C253    C    0.60380   0.21862   0.42472   1.000
    C254    C    0.14857   0.27841   0.42979   1.000
    C255    C    0.64858   0.27841   0.42979   1.000
    C256    C    0.20990   0.27446   0.45812   1.000
    C257    C    0.70991   0.27446   0.45812   1.000
    C258    C    0.13141   0.34788   0.40995   1.000
    C259    C    0.63142   0.34789   0.40995   1.000
    C260    C    0.40476   0.10632   0.56039   1.000
    C261    C    0.90477   0.10632   0.56039   1.000
    C262    C    0.42458   0.16229   0.52179   1.000
    C263    C    0.92459   0.16229   0.52179   1.000
    C264    C    0.44657   0.10889   0.42874   1.000
    C265    C    0.94658   0.10889   0.42874   1.000
    C266    C    0.47292   0.23121   0.57789   1.000
    C267    C    0.97293   0.23121   0.57789   1.000
    C268    C    0.45406   0.29008   0.83900   1.000
    C269    C    0.95407   0.29008   0.83979   1.000
    C270    C    0.05680   0.26809   0.78531   1.000
    C271    C    0.55681   0.26809   0.78531   1.000
    C272    C    0.43708   0.20619   0.78120   1.000
    C273    C    0.93708   0.20619   0.78120   1.000
    C274    C    0.48183   0.15141   0.72138   1.000
    C275    C    0.98184   0.15141   0.72138   1.000
    C276    C    0.04314   0.18365   0.72522   1.000
    C277    C    0.54315   0.18365   0.72522   1.000
    C278    C    0.46465   0.06209   0.65195   1.000
    C279    C    0.96466   0.06209   0.65195   1.000
    C280    C    0.23810   0.45406   0.89361   1.000
    C281    C    0.73811   0.45406   0.89361   1.000
    C282    C    0.25796   0.35946   0.83757   1.000
    C283    C    0.75797   0.35947   0.83757   1.000
    C284    C    0.27999   0.31978   0.89090   1.000
    C285    C    0.78000   0.31978   0.89090   1.000
    C286    C    0.30631   0.34662   0.76865   1.000
    C287    C    0.80632   0.34662   0.76865   1.000
    C288    C    0.28732   0.54969   0.70989   1.000
    C289    C    0.78733   0.54970   0.70989   1.000
    C290    C    0.39008   0.51716   0.73180   1.000
    C291    C    0.89009   0.51717   0.73180   1.000
    C292    C    0.27034   0.57506   0.79377   1.000
    C293    C    0.77035   0.57506   0.79377   1.000
    C294    C    0.31511   0.56997   0.84851   1.000
    C295    C    0.81512   0.56997   0.84851   1.000
    C296    C    0.37643   0.54155   0.81623   1.000
    C297    C    0.87645   0.54155   0.81623   1.000
    C298    C    0.29795   0.58988   0.93783   1.000
    C299    C    0.79796   0.58988   0.93783   1.000
    N300    N    0.37459   0.56651   0.51150   1.000
    N301    N    0.87460   0.56651   0.51150   1.000
    N302    N    0.42945   0.84179   0.52036   1.000
    N303    N    0.92946   0.84179   0.52036   1.000
    N304    N    0.20793   0.94502   0.43371   1.000
    N305    N    0.70795   0.94502   0.43371   1.000
    N306    N    0.26270   0.67851   0.15839   1.000
    N307    N    0.76272   0.67851   0.15839   1.000
    N308    N    0.04124   0.48864   0.05506   1.000
    N309    N    0.54125   0.48864   0.05506   1.000
    N310    N    0.09607   0.47996   0.32156   1.000
    N311    N    0.59608   0.47996   0.32156   1.000
    N312    N    0.12461   0.43354   0.48851   1.000
    N313    N    0.62462   0.43354   0.48851   1.000
    N314    N    0.17943   0.15825   0.47970   1.000
    N315    N    0.67944   0.15825   0.47970   1.000
    N316    N    0.45792   0.05499   0.56633   1.000
    N317    N    0.95793   0.05499   0.56633   1.000
    N318    N    0.01276   0.32147   0.84161   1.000
    N319    N    0.51277   0.32147   0.84161   1.000
    N320    N    0.29123   0.51134   0.94492   1.000
    N321    N    0.79124   0.51134   0.94492   1.000
    N322    N    0.34603   0.52009   0.67846   1.000
    N323    N    0.84604   0.52009   0.67846   1.000
loop_
    _geom_bond_atom_site_label_1
    _geom_bond_atom_site_label_2
    _geom_bond_distance
    _geom_bond_site_symmetry_2
    _ccdc_geom_bond_type
    H93    C121      1.10523      .   S
    H92    C120      1.09911      .   S
    H87    C121      1.09874      .   S
    H86    C120      1.09873      .   S
    N308   C120      1.49152      .   S
    N308   H60       1.03286      .   S
    N308   C224      1.48711  1_455   S
    N309   C121      1.49151      .   S
    N309   H61       1.03285      .   S
    N309   C223      1.48738      .   S
    C120   C237      1.50864      .   S
    C121   C238      1.50864      .   S
    H68    C228      1.09812      .   S
    H69    C227      1.09789  1_655   S
    H70    C227      1.10286      .   S
    H71    C228      1.09963      .   S
    C224   H63       1.10307      .   S
    C224   C225      1.54296  1_655   S
    C223   H62       1.10308      .   S
    C223   C226      1.54306      .   S
    C227   H66       1.09835      .   S
    C227   C225      1.53015      .   S
    C228   H67       1.09835      .   S
    C228   C226      1.53012      .   S
    H48    C211      1.08749      .   S
    H49    C212      1.08748      .   S
    H85    C240      1.09069      .   S
    H84    C239      1.09142      .   S
    C238   C240      1.39985      .   S
    C238   C236      1.39914      .   S
    C237   C239      1.40012      .   S
    C237   C235      1.39913      .   S
    N306   C211      1.34996      .   S
    N306   C213      1.35447      .   S
    N307   C212      1.34996      .   S
    N307   C214      1.35446      .   S
    C212   C216      1.39055      .   S
    C211   C215      1.39054      .   S
    C225   H65       1.09900  1_455   S
    C225   C229      1.53012      .   S
    C226   H64       1.09928      .   S
    C226   C230      1.53012      .   S
    C240   C234      1.38882      .   S
    C239   C233      1.38762      .   S
    H82    C236      1.09023      .   S
    H83    C235      1.08993  1_655   S
    H72    C229      1.10002      .   S
    H73    C230      1.10000      .   S
    C235   C231      1.39064      .   S
    C236   C232      1.39065      .   S
    H51    C214      1.08800      .   S
    H50    C213      1.08800      .   S
    C213   C219      1.38758      .   S
    C214   C220      1.38759      .   S
    H53    C216      1.09026      .   S
    H52    C215      1.09028      .   S
    C215   C217      1.39905      .   S
    C216   C218      1.39904      .   S
    C229   H74       1.09947      .   S
    C229   H76       1.09842      .   S
    C230   H75       1.09946      .   S
    C230   H77       1.09839      .   S
    H7     C88       1.09952      .   S
    H6     C191      1.09837      .   S
    C233   H80       1.08803      .   S
    C233   N310      1.35451      .   S
    C234   H81       1.08802      .   S
    C234   N311      1.35439      .   S
    C219   C217      1.40007      .   S
    C219   H54       1.09146      .   S
    C220   C218      1.40007      .   S
    C220   H55       1.09146      .   S
    H16    C89       1.09838      .   S
    H17    C90       1.09838      .   S
    C217   C221      1.50859      .   S
    C218   C222      1.50859      .   S
    C231   N310      1.34998      .   S
    C231   H78       1.08744      .   S
    C232   N311      1.34996      .   S
    C232   H79       1.08747      .   S
    C88    H9        1.09827      .   S
    C88    H11       1.09973      .   S
    C88    C190      1.53006      .   S
    C191   H8        1.09818      .   S
    C191   H10       1.09961      .   S
    C191   C189      1.53008      .   S
    H4     C189      1.09997      .   S
    H5     C190      1.09928      .   S
    H56    C221      1.09874      .   S
    H57    C222      1.09872      .   S
    C89    C189      1.53014      .   S
    C89    H14       1.09951      .   S
    C89    H12       1.09995      .   S
    C90    C190      1.53014      .   S
    C90    H15       1.09948      .   S
    C90    H13       1.09970      .   S
    C222   H59       1.09906      .   S
    C222   N305      1.49162      .   S
    C221   H58       1.09904      .   S
    C221   N304      1.49162      .   S
    H45    C210      1.09946      .   S
    H44    C209      1.09946      .   S
    C190   C188      1.54302      .   S
    C189   C187      1.54301      .   S
    H125   C258      1.09914      .   S
    H126   C259      1.09904      .   S
    H123   C258      1.09873      .   S
    H124   C259      1.09873      .   S
    H33    C204      1.10294      .   S
    H32    C203      1.10294      .   S
    H135   C264      1.09817      .   S
    H136   C265      1.09817      .   S
    H116   C252      1.09027      .   S
    H117   C253      1.09027      .   S
    H134   C265      1.09914      .   S
    H133   C264      1.09832      .   S
    C259   C255      1.50889      .   S
    C259   N313      1.49160      .   S
    C258   C254      1.50887      .   S
    C258   N312      1.49160      .   S
    H42    C209      1.10001      .   S
    H43    C210      1.09998      .   S
    H138   C265      1.09957      .   S
    H137   C264      1.09957      .   S
    C209   H46       1.09833      .   S
    C209   C205      1.53013      .   S
    C210   H47       1.09835      .   S
    C210   C206      1.53014      .   S
    C253   C255      1.39915      .   S
    C253   C249      1.39054      .   S
    C252   C254      1.39915      .   S
    C252   C248      1.39054      .   S
    C265   C263      1.53001      .   S
    C264   C262      1.53001      .   S
    C255   C257      1.40010      .   S
    C254   C256      1.40013      .   S
    N304   C203      1.48739      .   S
    N304   H30       1.03286      .   S
    N305   C204      1.48740      .   S
    N305   H31       1.03286      .   S
    C204   C206      1.54320      .   S
    C203   C205      1.54318      .   S
    H113   C249      1.08749      .   S
    H112   C248      1.08749      .   S
    C248   N314      1.34999      .   S
    C249   N315      1.34996      .   S
    C187   H2        1.10295      .   S
    C187   N300      1.48748      .   S
    C188   H3        1.10295      .   S
    C188   N301      1.48748      .   S
    C257   H119      1.09167      .   S
    C257   C251      1.38761      .   S
    C256   H118      1.09150      .   S
    C256   C250      1.38761      .   S
    H34    C205      1.09929      .   S
    H35    C206      1.09929      .   S
    C205   C207      1.52981      .   S
    C206   C208      1.52981      .   S
    N315   C251      1.35446      .   S
    N314   C250      1.35444      .   S
    H0     N300      1.03288      .   S
    H1     N301      1.03282      .   S
    C251   H115      1.08801      .   S
    C250   H114      1.08803      .   S
    N312   H94       1.03287      .   S
    N312   C122      1.48751      .   S
    N313   H95       1.03285      .   S
    N313   C241      1.48752      .   S
    H20    C194      1.08772  1_455   S
    H21    C193      1.08803      .   S
    N300   C201      1.49161      .   S
    N301   C202      1.49162      .   S
    C193   N302      1.35446      .   S
    C193   C199      1.38686      .   S
    C194   N303      1.35446      .   S
    C194   C200      1.38775      .   S
    N303   C192      1.34999      .   S
    N302   C91       1.34999      .   S
    C263   H132      1.09930      .   S
    C263   C261      1.54321      .   S
    C263   C267      1.53010      .   S
    C262   H131      1.09930      .   S
    C262   C260      1.54321      .   S
    C262   C266      1.53010      .   S
    H97    C241      1.10294      .   S
    H96    C122      1.10294      .   S
    H25    C200      1.09144      .   S
    H24    C199      1.09180      .   S
    C199   C197      1.40062      .   S
    C200   C198      1.40013      .   S
    C241   C243      1.54314      .   S
    C122   C242      1.54234      .   S
    C91    H18       1.08751      .   S
    C91    C195      1.39058      .   S
    C192   H19       1.08749      .   S
    C192   C196      1.39059      .   S
    H127   N316      1.03290      .   S
    H128   N317      1.01011  1_455   S
    H144   C267      1.09841      .   S
    H143   C266      1.09842      .   S
    C261   N317      1.48741      .   S
    C261   H130      1.10297      .   S
    C260   N316      1.48741      .   S
    C260   H129      1.10297      .   S
    N317   C279      1.49146      .   S
    N316   C278      1.49146      .   S
    C197   C195      1.39916      .   S
    C197   C201      1.50887      .   S
    C198   C196      1.39916      .   S
    C198   C202      1.50884      .   S
    C208   H41       1.09951      .   S
    C208   H37       1.09863      .   S
    C208   H39       1.09820      .   S
    C207   H40       1.09952      .   S
    C207   H36       1.09861      .   S
    C207   H38       1.09821      .   S
    C196   H23       1.09026      .   S
    C195   H22       1.09025      .   S
    C267   H139      1.09970  1_655   S
    C267   H142      1.09876      .   S
    C266   H140      1.09999      .   S
    C266   H141      1.09876      .   S
    C201   H26       1.09843      .   S
    C201   H28       1.09907      .   S
    C202   H27       1.09878      .   S
    C202   H29       1.09906      .   S
    H107   C247      1.09955      .   S
    H106   C246      1.09953      .   S
    H109   C247      1.09955      .   S
    H108   C246      1.09956      .   S
    C242   C246      1.53003      .   S
    C242   H98       1.09969      .   S
    C242   C244      1.53004      .   S
    C243   C247      1.52960      .   S
    C243   H99       1.09920      .   S
    C243   C245      1.53012      .   S
    H156   C278      1.09907      .   S
    H155   C279      1.09883  1_455   S
    H104   C244      1.09954      .   S
    H105   C245      1.09956      .   S
    C278   H153      1.09870      .   S
    C278   C274      1.50857      .   S
    C279   H154      1.09871      .   S
    C279   C275      1.50857      .   S
    C247   H111      1.09938      .   S
    C246   H110      1.09805      .   S
    H175   C288      1.08746      .   S
    H176   C289      1.08746      .   S
    H103   C245      1.09816      .   S
    H102   C244      1.09817      .   S
    N323   C289      1.34999      .   S
    N323   C291      1.35451      .   S
    N322   C288      1.35001      .   S
    N322   C290      1.35451      .   S
    C245   H101      1.09834      .   S
    C244   H100      1.09834      .   S
    H151   C276      1.09143      .   S
    H152   C277      1.09143      .   S
    H177   C290      1.08806      .   S
    H178   C291      1.08806      .   S
    C289   C293      1.39055      .   S
    C288   C292      1.39054      .   S
    C274   C277      1.40009      .   S
    C274   C272      1.39874      .   S
    C275   C276      1.39977  1_655   S
    C275   C273      1.39874      .   S
    H174   C287      1.09840      .   S
    H173   C286      1.09841      .   S
    C277   C271      1.38761      .   S
    C276   C270      1.38760      .   S
    H171   C286      1.09950      .   S
    H172   C287      1.09952      .   S
    C290   C296      1.38754      .   S
    C291   C297      1.38755      .   S
    C286   H169      1.10000      .   S
    C286   C282      1.53021      .   S
    C287   H170      1.10000      .   S
    C287   C283      1.53021      .   S
    C273   H150      1.09040      .   S
    C273   C269      1.39068      .   S
    C272   H149      1.09038      .   S
    C272   C268      1.38766      .   S
    C271   H148      1.08800      .   S
    C271   N319      1.35448      .   S
    C270   H147      1.08803      .   S
    C270   N318      1.35448      .   S
    C293   H180      1.09031      .   S
    C293   C295      1.39916      .   S
    C292   H179      1.09031      .   S
    C292   C294      1.39916      .   S
    H161   C282      1.09933      .   S
    H162   C283      1.09932      .   S
    C297   C295      1.40013      .   S
    C297   H182      1.09150      .   S
    C296   C294      1.40013      .   S
    C296   H181      1.09151      .   S
    C282   C284      1.52997      .   S
    C282   C280      1.54304      .   S
    C283   C285      1.52999      .   S
    C283   C281      1.54303      .   S
    C268   N319      1.34737      .   S
    C268   H145      1.09331      .   S
    C269   N318      1.34962  1_655   S
    C269   H146      1.08748      .   S
    C295   C299      1.50879      .   S
    C294   C298      1.50879      .   S
    H163   C284      1.09840      .   S
    H164   C285      1.09840      .   S
    H159   C280      1.10305      .   S
    H160   C281      1.10307      .   S
    C284   H167      1.09961      .   S
    C284   H165      1.09818      .   S
    C285   H168      1.09962      .   S
    C285   H166      1.09818      .   S
    C280   N320      1.48743      .   S
    C281   N321      1.48743      .   S
    H157   N320      1.03286      .   S
    H158   N321      1.03285      .   S
    C299   N321      1.49148      .   S
    C299   H184      1.09874      .   S
    C299   H186      1.09896      .   S
    C298   N320      1.49148      .   S
    C298   H183      1.09873      .   S
    C298   H185      1.09903      .   S
