# CIF file generated by openbabel 2.4.90, see http://openbabel.sf.net
data_I
_chemical_name_common ''
_cell_length_a 20.994
_cell_length_b 18.038
_cell_length_c 18.041
_cell_angle_alpha 120.021
_cell_angle_beta 90.005
_cell_angle_gamma 89.982
_space_group_name_H-M_alt 'P 1'
_space_group_name_Hall 'P 1'
loop_
    _symmetry_equiv_pos_as_xyz
    x,y,z
loop_
    _atom_site_label
    _atom_site_type_symbol
    _atom_site_fract_x
    _atom_site_fract_y
    _atom_site_fract_z
    _atom_site_occupancy
    Zn0     Zn   0.86678   0.47367   0.54992   1.000
    Zn1     Zn   0.20010   0.07632   0.52630   1.000
    Zn2     Zn   0.70011   0.07632   0.52639   1.000
    Zn3     Zn   0.03345   0.45006   0.92375   1.000
    Zn4     Zn   0.53346   0.45006   0.92375   1.000
    Zn5     Zn   0.11678   0.52639   0.45010   1.000
    Zn6     Zn   0.61679   0.52639   0.45011   1.000
    Zn7     Zn   0.45012   0.92369   0.47365   1.000
    Zn8     Zn   0.95013   0.92369   0.47360   1.000
    Zn9     Zn   0.28344   0.54992   0.07623   1.000
    Zn10    Zn   0.78345   0.54992   0.07623   1.000
    Zn11    Zn   0.36678   0.47367   0.54992   1.000
    C12     C    0.01405   0.48733   0.53619   1.000
    C13     C    0.51406   0.48733   0.53619   1.000
    C14     C    0.26406   0.51271   0.46381   1.000
    C15     C    0.76407   0.51271   0.46381   1.000
    C16     C    0.09738   0.95113   0.48735   1.000
    C17     C    0.59739   0.95113   0.48735   1.000
    C18     C    0.43070   0.53628   0.04893   1.000
    C19     C    0.93071   0.53628   0.04893   1.000
    C20     C    0.34737   0.04889   0.51260   1.000
    C21     C    0.84738   0.04889   0.51266   1.000
    C22     C    0.18071   0.46371   0.95105   1.000
    C23     C    0.68072   0.46371   0.95105   1.000
    Br24    Br   0.38014   0.32343   0.45712   1.000
    Br25    Br   0.88015   0.32343   0.45712   1.000
    Br26    Br   0.21336   0.13402   0.67660   1.000
    Br27    Br   0.71337   0.13402   0.67661   1.000
    Br28    Br   0.04671   0.54261   0.86609   1.000
    Br29    Br   0.54672   0.54261   0.86609   1.000
    Br30    Br   0.13010   0.67662   0.54287   1.000
    Br31    Br   0.63011   0.67662   0.54287   1.000
    Br32    Br   0.46335   0.86597   0.32343   1.000
    Br33    Br   0.96336   0.86596   0.32343   1.000
    Br34    Br   0.29677   0.45733   0.13383   1.000
    Br35    Br   0.79678   0.45733   0.13380   1.000
    O36     O    0.26646   0.48737   0.51838   1.000
    O37     O    0.76647   0.48737   0.51838   1.000
    O38     O    0.21695   0.50321   0.41609   1.000
    O39     O    0.71696   0.50321   0.41609   1.000
    O40     O    0.09976   0.03105   0.51268   1.000
    O41     O    0.59977   0.03105   0.51260   1.000
    O42     O    0.05028   0.91292   0.49687   1.000
    O43     O    0.55029   0.91292   0.49687   1.000
    O44     O    0.43313   0.48165   0.96900   1.000
    O45     O    0.93314   0.48165   0.96900   1.000
    O46     O    0.38359   0.58402   0.08710   1.000
    O47     O    0.88359   0.58402   0.08712   1.000
    O48     O    0.01645   0.51270   0.48165   1.000
    O49     O    0.51646   0.51271   0.48165   1.000
    O50     O    0.46696   0.49683   0.58391   1.000
    O51     O    0.96697   0.49683   0.58391   1.000
    O52     O    0.34978   0.96898   0.48730   1.000
    O53     O    0.84979   0.96898   0.48730   1.000
    O54     O    0.30025   0.08710   0.50314   1.000
    O55     O    0.80026   0.08710   0.50314   1.000
    O56     O    0.18312   0.51834   0.03097   1.000
    O57     O    0.68313   0.51834   0.03097   1.000
    O58     O    0.13361   0.41598   0.91285   1.000
    O59     O    0.63362   0.41598   0.91285   1.000
loop_
    _geom_bond_atom_site_label_1
    _geom_bond_atom_site_label_2
    _geom_bond_distance
    _geom_bond_site_symmetry_2
    _ccdc_geom_bond_type
    O57    Zn10      2.22756      .   S
    O57    C23       1.27703  1_554   S
    O56    Zn9       2.22758      .   S
    O56    C22       1.27702  1_554   S
    C18    O46       1.26514      .   S
    C18    O44       1.27714  1_554   S
    C19    O47       1.26522      .   S
    C19    O45       1.27715  1_554   S
    Zn10   O47       2.17182      .   S
    Zn10   Br35      2.38366      .   S
    Zn9    O46       2.17187      .   S
    Zn9    Br34      2.38409      .   S
    Br33   Zn8       2.38296      .   S
    Br32   Zn7       2.38379      .   S
    O39    Zn6       2.17194      .   S
    O39    C15       1.26525      .   S
    O38    Zn5       2.17188      .   S
    O38    C14       1.26523      .   S
    Zn5    O48       2.22765      .   S
    Zn5    Br30      2.38433      .   S
    Zn6    O49       2.22760      .   S
    Zn6    Br31      2.38430      .   S
    Br24   Zn11      2.38433      .   S
    Br25   Zn0       2.38434      .   S
    C14    O36       1.27713      .   S
    C15    O37       1.27715      .   S
    Zn8    O53       2.22769      .   S
    Zn8    O42       2.17167  1_655   S
    Zn7    O52       2.22777      .   S
    Zn7    O43       2.17184      .   S
    O48    C12       1.27705      .   S
    O49    C13       1.27709      .   S
    O52    C20       1.27682  1_565   S
    O53    C21       1.27661  1_565   S
    C17    O43       1.26526      .   S
    C17    O41       1.27713  1_565   S
    C16    O42       1.26527      .   S
    C16    O40       1.27683  1_565   S
    O55    C21       1.26528      .   S
    O55    Zn2       2.17175      .   S
    O54    C20       1.26485      .   S
    O54    Zn1       2.17135      .   S
    O41    Zn2       2.22799      .   S
    O40    Zn1       2.22824      .   S
    O37    Zn0       2.22711      .   S
    O36    Zn11      2.22715      .   S
    Zn1    Br26      2.38523      .   S
    Zn2    Br27      2.38391      .   S
    C13    O50       1.26524      .   S
    C12    O51       1.26498  1_455   S
    Zn0    O51       2.17212      .   S
    Zn11   O50       2.17214      .   S
    Br28   Zn3       2.38432      .   S
    Br29   Zn4       2.38432      .   S
    O58    Zn3       2.17164      .   S
    O58    C22       1.26527      .   S
    O59    Zn4       2.17167      .   S
    O59    C23       1.26526      .   S
    Zn3    O45       2.22721  1_455   S
    Zn4    O44       2.22755      .   S
