# CIF file generated by openbabel 2.4.90, see http://openbabel.sf.net
data_I
_chemical_name_common ''
_cell_length_a 20.994
_cell_length_b 18.038
_cell_length_c 18.041
_cell_angle_alpha 120.021
_cell_angle_beta 90.005
_cell_angle_gamma 89.982
_space_group_name_H-M_alt 'P 1'
_space_group_name_Hall 'P 1'
loop_
    _symmetry_equiv_pos_as_xyz
    x,y,z
loop_
    _atom_site_label
    _atom_site_type_symbol
    _atom_site_fract_x
    _atom_site_fract_y
    _atom_site_fract_z
    _atom_site_occupancy
    C0      C    0.01405   0.48733   0.53619   1.000
    C1      C    0.51406   0.48733   0.53619   1.000
    C2      C    0.26406   0.51271   0.46381   1.000
    C3      C    0.76407   0.51271   0.46381   1.000
    C4      C    0.09738   0.95113   0.48735   1.000
    C5      C    0.59739   0.95113   0.48735   1.000
    C6      C    0.43070   0.53628   0.04893   1.000
    C7      C    0.93071   0.53628   0.04893   1.000
    C8      C    0.34737   0.04889   0.51260   1.000
    C9      C    0.84738   0.04889   0.51266   1.000
    C10     C    0.18071   0.46371   0.95105   1.000
    C11     C    0.68072   0.46371   0.95105   1.000
