# CIF file generated by openbabel 2.4.90, see http://openbabel.sf.net
data_I
_chemical_name_common ''
_cell_length_a 20.994
_cell_length_b 18.038
_cell_length_c 18.041
_cell_angle_alpha 120.021
_cell_angle_beta 90.005
_cell_angle_gamma 89.982
_space_group_name_H-M_alt 'P 1'
_space_group_name_Hall 'P 1'
loop_
    _symmetry_equiv_pos_as_xyz
    x,y,z
loop_
    _atom_site_label
    _atom_site_type_symbol
    _atom_site_fract_x
    _atom_site_fract_y
    _atom_site_fract_z
    _atom_site_occupancy
    C0      C    0.36678   0.47367   0.54992   1.000
    C1      C    0.86678   0.47367   0.54992   1.000
    C2      C    0.20010   0.07632   0.52630   1.000
    C3      C    0.70011   0.07632   0.52639   1.000
    C4      C    0.03345   0.45006   0.92375   1.000
    C5      C    0.53346   0.45006   0.92375   1.000
    C6      C    0.11678   0.52639   0.45010   1.000
    C7      C    0.61679   0.52639   0.45011   1.000
    C8      C    0.45012   0.92369   0.47365   1.000
    C9      C    0.95013   0.92369   0.47360   1.000
    C10     C    0.28344   0.54992   0.07623   1.000
    C11     C    0.78345   0.54992   0.07623   1.000
    C12     C    0.41789   0.55159   0.48012   1.000
    C13     C    0.91790   0.55159   0.48013   1.000
    C14     C    0.30321   0.62548   0.47530   1.000
    C15     C    0.80322   0.62548   0.47530   1.000
    C16     C    0.29739   0.52215   0.32640   1.000
    C17     C    0.79740   0.52215   0.32647   1.000
    C18     C    0.37304   0.40290   0.25138   1.000
    C19     C    0.87305   0.40291   0.25130   1.000
    C20     C    0.32664   0.38854   0.32533   1.000
    C21     C    0.82665   0.38854   0.32533   1.000
    C22     C    0.40640   0.42214   0.35048   1.000
    C23     C    0.90641   0.42214   0.35048   1.000
    C24     C    0.43631   0.57976   0.37533   1.000
    C25     C    0.93632   0.57976   0.37530   1.000
    C26     C    0.37267   0.64458   0.37520   1.000
    C27     C    0.87268   0.64459   0.37522   1.000
    C28     C    0.39652   0.55332   0.27815   1.000
    C29     C    0.89653   0.55332   0.27815   1.000
    C30     C    0.33713   0.88682   0.55193   1.000
    C31     C    0.83714   0.88682   0.55193   1.000
    C32     C    0.02064   0.79042   0.49520   1.000
    C33     C    0.52064   0.79042   0.49520   1.000
    C34     C    0.30549   0.78245   0.59801   1.000
    C35     C    0.80550   0.78244   0.59801   1.000
    C36     C    0.49758   0.68202   0.53801   1.000
    C37     C    0.99759   0.68202   0.53801   1.000
    C38     C    0.33634   0.66719   0.62570   1.000
    C39     C    0.83635   0.66719   0.62574   1.000
    C40     C    0.41884   0.64581   0.62909   1.000
    C41     C    0.91885   0.64581   0.62909   1.000
    C42     C    0.25126   0.92852   0.44854   1.000
    C43     C    0.75127   0.92852   0.44854   1.000
    C44     C    0.13665   0.84972   0.37473   1.000
    C45     C    0.63666   0.84972   0.37473   1.000
    C46     C    0.13078   0.80441   0.47817   1.000
    C47     C    0.63079   0.80441   0.47817   1.000
    C48     C    0.20638   0.84888   0.59751   1.000
    C49     C    0.70639   0.84888   0.59751   1.000
    C50     C    0.15991   0.93710   0.61165   1.000
    C51     C    0.65992   0.93710   0.61165   1.000
    C52     C    0.23968   0.92864   0.57810   1.000
    C53     C    0.73970   0.92864   0.57810   1.000
    C54     C    0.26973   0.79560   0.42062   1.000
    C55     C    0.76974   0.79560   0.42062   1.000
    C56     C    0.20612   0.73060   0.35580   1.000
    C57     C    0.70613   0.73060   0.35580   1.000
    C58     C    0.22992   0.72491   0.44709   1.000
    C59     C    0.72993   0.72491   0.44709   1.000
    C60     C    0.17038   0.66510   0.11345   1.000
    C61     C    0.67039   0.66511   0.11345   1.000
    C62     C    0.35389   0.70464   0.20974   1.000
    C63     C    0.85390   0.70464   0.20974   1.000
    C64     C    0.13872   0.81563   0.21793   1.000
    C65     C    0.63874   0.81563   0.21793   1.000
    C66     C    0.33081   0.85592   0.31823   1.000
    C67     C    0.83082   0.85592   0.31823   1.000
    C68     C    0.16957   0.95861   0.33316   1.000
    C69     C    0.66958   0.95861   0.33316   1.000
    C70     C    0.25207   0.98333   0.35439   1.000
    C71     C    0.75209   0.98333   0.35439   1.000
    C72     C    0.08454   0.51999   0.07155   1.000
    C73     C    0.58455   0.52000   0.07155   1.000
    C74     C    0.46990   0.52498   0.15029   1.000
    C75     C    0.96991   0.52498   0.15029   1.000
    C76     C    0.46407   0.67382   0.19569   1.000
    C77     C    0.96408   0.67382   0.19569   1.000
    C78     C    0.03976   0.74862   0.15127   1.000
    C79     C    0.53977   0.74862   0.15127   1.000
    C80     C    0.49330   0.67459   0.06305   1.000
    C81     C    0.99331   0.67459   0.06305   1.000
    C82     C    0.07304   0.64936   0.07100   1.000
    C83     C    0.57304   0.64936   0.07149   1.000
    C84     C    0.10299   0.62491   0.20449   1.000
    C85     C    0.60300   0.62492   0.20449   1.000
    C86     C    0.03936   0.62529   0.26954   1.000
    C87     C    0.53937   0.62529   0.26954   1.000
    C88     C    0.06321   0.72221   0.27513   1.000
    C89     C    0.56323   0.72221   0.27512   1.000
    C90     C    0.00374   0.44852   0.33503   1.000
    C91     C    0.50376   0.44852   0.33503   1.000
    C92     C    0.18725   0.50512   0.29538   1.000
    C93     C    0.68726   0.50512   0.29539   1.000
    C94     C    0.47209   0.40240   0.18455   1.000
    C95     C    0.97210   0.40240   0.18455   1.000
    C96     C    0.16417   0.46226   0.14414   1.000
    C97     C    0.66418   0.46226   0.14414   1.000
    C98     C    0.00293   0.37451   0.04155   1.000
    C99     C    0.50294   0.37451   0.04155   1.000
    C100    C    0.08543   0.37098   0.01679   1.000
    C101    C    0.58544   0.37098   0.01600   1.000
    C102    C    0.16791   0.44842   0.51988   1.000
    C103    C    0.66792   0.44842   0.51988   1.000
    C104    C    0.05327   0.37459   0.52475   1.000
    C105    C    0.55328   0.37459   0.52475   1.000
    C106    C    0.04743   0.47793   0.67356   1.000
    C107    C    0.54744   0.47793   0.67356   1.000
    C108    C    0.12300   0.59722   0.74862   1.000
    C109    C    0.62301   0.59722   0.74862   1.000
    C110    C    0.07656   0.61154   0.67467   1.000
    C111    C    0.57657   0.61154   0.67467   1.000
    C112    C    0.15633   0.57798   0.64952   1.000
    C113    C    0.65635   0.57798   0.64952   1.000
    C114    C    0.18638   0.42036   0.62468   1.000
    C115    C    0.68639   0.42036   0.62468   1.000
    C116    C    0.12278   0.35553   0.62482   1.000
    C117    C    0.62279   0.35553   0.62482   1.000
    C118    C    0.14660   0.44680   0.72180   1.000
    C119    C    0.64661   0.44680   0.72188   1.000
    C120    C    0.08710   0.11335   0.44820   1.000
    C121    C    0.58711   0.11335   0.44820   1.000
    C122    C    0.27064   0.20948   0.50479   1.000
    C123    C    0.77065   0.20948   0.50479   1.000
    C124    C    0.05549   0.21772   0.40208   1.000
    C125    C    0.55550   0.21772   0.40208   1.000
    C126    C    0.24762   0.31788   0.46193   1.000
    C127    C    0.74763   0.31788   0.46190   1.000
    C128    C    0.08637   0.33289   0.37427   1.000
    C129    C    0.58639   0.33289   0.37427   1.000
    C130    C    0.16888   0.35421   0.37092   1.000
    C131    C    0.66889   0.35421   0.37093   1.000
    C132    C    0.50123   0.07147   0.55147   1.000
    C133    C    0.00000   0.07147   0.55147   1.000
    C134    C    0.38659   0.15029   0.62530   1.000
    C135    C    0.88660   0.15029   0.62530   1.000
    C136    C    0.38071   0.19560   0.52184   1.000
    C137    C    0.88072   0.19560   0.52184   1.000
    C138    C    0.45637   0.15113   0.40256   1.000
    C139    C    0.95638   0.15113   0.40250   1.000
    C140    C    0.40993   0.06291   0.38837   1.000
    C141    C    0.90994   0.06291   0.38837   1.000
    C142    C    0.48968   0.07137   0.42199   1.000
    C143    C    0.98969   0.07137   0.42199   1.000
    C144    C    0.01963   0.20442   0.57947   1.000
    C145    C    0.51964   0.20442   0.57947   1.000
    C146    C    0.45599   0.26943   0.64420   1.000
    C147    C    0.95600   0.26943   0.64420   1.000
    C148    C    0.47981   0.27511   0.55296   1.000
    C149    C    0.97983   0.27511   0.55296   1.000
    C150    C    0.42046   0.33498   0.88662   1.000
    C151    C    0.92046   0.33498   0.88662   1.000
    C152    C    0.10392   0.29525   0.79018   1.000
    C153    C    0.60393   0.29525   0.79018   1.000
    C154    C    0.38877   0.18449   0.78216   1.000
    C155    C    0.88878   0.18449   0.78216   1.000
    C156    C    0.08081   0.14401   0.68169   1.000
    C157    C    0.58082   0.14401   0.68169   1.000
    C158    C    0.41958   0.04148   0.66692   1.000
    C159    C    0.91959   0.04148   0.66692   1.000
    C160    C    0.00208   0.01668   0.64564   1.000
    C161    C    0.50209   0.01668   0.64564   1.000
    C162    C    0.33455   0.47998   0.92842   1.000
    C163    C    0.83456   0.47998   0.92842   1.000
    C164    C    0.21989   0.47504   0.84970   1.000
    C165    C    0.71990   0.47504   0.84970   1.000
    C166    C    0.21410   0.32619   0.80426   1.000
    C167    C    0.71412   0.32619   0.80426   1.000
    C168    C    0.28981   0.25133   0.84860   1.000
    C169    C    0.78982   0.25133   0.84860   1.000
    C170    C    0.24336   0.32538   0.93688   1.000
    C171    C    0.74337   0.32538   0.93688   1.000
    C172    C    0.32310   0.35055   0.92840   1.000
    C173    C    0.82311   0.35056   0.92840   1.000
    C174    C    0.35302   0.37502   0.79542   1.000
    C175    C    0.85303   0.37502   0.79542   1.000
    C176    C    0.28937   0.37472   0.73041   1.000
    C177    C    0.78939   0.37472   0.73041   1.000
    C178    C    0.31324   0.27776   0.72479   1.000
    C179    C    0.81325   0.27776   0.72479   1.000
    C180    C    0.25370   0.55163   0.66503   1.000
    C181    C    0.75371   0.55163   0.66503   1.000
    C182    C    0.43720   0.49484   0.70460   1.000
    C183    C    0.93721   0.49485   0.70460   1.000
    C184    C    0.22204   0.59772   0.81551   1.000
    C185    C    0.72205   0.59772   0.81551   1.000
    C186    C    0.41412   0.53768   0.85584   1.000
    C187    C    0.91414   0.53768   0.85584   1.000
    C188    C    0.25287   0.62549   0.95847   1.000
    C189    C    0.75288   0.62549   0.95847   1.000
    C190    C    0.33538   0.62899   0.98321   1.000
    C191    C    0.83539   0.62900   0.98320   1.000
    C192    C    0.26406   0.51271   0.46381   1.000
    C193    C    0.76407   0.51271   0.46381   1.000
    C194    C    0.32143   0.56056   0.45425   1.000
    C195    C    0.82144   0.56056   0.45425   1.000
    C196    C    0.34127   0.52205   0.35968   1.000
    C197    C    0.84128   0.52205   0.35968   1.000
    C198    C    0.36327   0.42897   0.31981   1.000
    C199    C    0.86328   0.42897   0.31980   1.000
    C200    C    0.38960   0.57821   0.34697   1.000
    C201    C    0.88961   0.57821   0.34697   1.000
    C202    C    0.37076   0.84000   0.54999   1.000
    C203    C    0.87077   0.84001   0.54999   1.000
    C204    C    0.47352   0.78555   0.51749   1.000
    C205    C    0.97353   0.78555   0.51749   1.000
    C206    C    0.35379   0.78149   0.57535   1.000
    C207    C    0.85380   0.78149   0.57535   1.000
    C208    C    0.39855   0.72162   0.57023   1.000
    C209    C    0.89857   0.72162   0.57023   1.000
    C210    C    0.45988   0.72549   0.54180   1.000
    C211    C    0.95989   0.72550   0.54187   1.000
    C212    C    0.38138   0.65216   0.59006   1.000
    C213    C    0.88139   0.65216   0.59006   1.000
    C214    C    0.09738   0.95113   0.48735   1.000
    C215    C    0.59739   0.95113   0.48735   1.000
    C216    C    0.15480   0.89370   0.43964   1.000
    C217    C    0.65481   0.89370   0.43964   1.000
    C218    C    0.17464   0.83773   0.47825   1.000
    C219    C    0.67465   0.83773   0.47825   1.000
    C220    C    0.19659   0.89113   0.57130   1.000
    C221    C    0.69660   0.89113   0.57130   1.000
    C222    C    0.22301   0.76881   0.42217   1.000
    C223    C    0.72303   0.76881   0.42217   1.000
    C224    C    0.20400   0.70997   0.16025   1.000
    C225    C    0.70401   0.70997   0.16025   1.000
    C226    C    0.30676   0.73185   0.21465   1.000
    C227    C    0.80677   0.73185   0.21465   1.000
    C228    C    0.18703   0.79388   0.21881   1.000
    C229    C    0.68704   0.79388   0.21881   1.000
    C230    C    0.23181   0.84861   0.27863   1.000
    C231    C    0.73182   0.84861   0.27863   1.000
    C232    C    0.29312   0.81631   0.27474   1.000
    C233    C    0.79314   0.81631   0.27474   1.000
    C234    C    0.21464   0.93794   0.34809   1.000
    C235    C    0.71466   0.93794   0.34809   1.000
    C236    C    0.43070   0.53628   0.04893   1.000
    C237    C    0.93071   0.53628   0.04893   1.000
    C238    C    0.48810   0.54593   0.10636   1.000
    C239    C    0.98810   0.54593   0.10636   1.000
    C240    C    0.00793   0.64052   0.16238   1.000
    C241    C    0.50794   0.64053   0.16238   1.000
    C242    C    0.02993   0.68017   0.10901   1.000
    C243    C    0.52994   0.68017   0.10901   1.000
    C244    C    0.05628   0.65336   0.23128   1.000
    C245    C    0.55629   0.65336   0.23128   1.000
    C246    C    0.03736   0.45041   0.29015   1.000
    C247    C    0.53738   0.45041   0.29015   1.000
    C248    C    0.14012   0.48283   0.26820   1.000
    C249    C    0.64013   0.48284   0.26821   1.000
    C250    C    0.02039   0.42503   0.20626   1.000
    C251    C    0.52040   0.42503   0.20626   1.000
    C252    C    0.06516   0.43005   0.15150   1.000
    C253    C    0.56517   0.43005   0.15150   1.000
    C254    C    0.12648   0.45843   0.18376   1.000
    C255    C    0.62649   0.45844   0.18370   1.000
    C256    C    0.04799   0.41011   0.06218   1.000
    C257    C    0.54800   0.41012   0.06218   1.000
    C258    C    0.01405   0.48733   0.53619   1.000
    C259    C    0.51406   0.48733   0.53619   1.000
    C260    C    0.07146   0.43950   0.54577   1.000
    C261    C    0.57147   0.43950   0.54577   1.000
    C262    C    0.09129   0.47804   0.64030   1.000
    C263    C    0.59130   0.47804   0.64035   1.000
    C264    C    0.11323   0.57113   0.68019   1.000
    C265    C    0.61324   0.57114   0.68019   1.000
    C266    C    0.13967   0.42191   0.65300   1.000
    C267    C    0.63968   0.42191   0.65300   1.000
    C268    C    0.12074   0.16011   0.45010   1.000
    C269    C    0.62075   0.16011   0.45010   1.000
    C270    C    0.22351   0.21442   0.48252   1.000
    C271    C    0.72353   0.21442   0.48252   1.000
    C272    C    0.10379   0.21862   0.42472   1.000
    C273    C    0.60380   0.21862   0.42472   1.000
    C274    C    0.14857   0.27841   0.42979   1.000
    C275    C    0.64858   0.27841   0.42979   1.000
    C276    C    0.20990   0.27446   0.45812   1.000
    C277    C    0.70991   0.27446   0.45812   1.000
    C278    C    0.13141   0.34788   0.40995   1.000
    C279    C    0.63142   0.34789   0.40995   1.000
    C280    C    0.34737   0.04889   0.51260   1.000
    C281    C    0.84738   0.04889   0.51266   1.000
    C282    C    0.40476   0.10632   0.56039   1.000
    C283    C    0.90477   0.10632   0.56039   1.000
    C284    C    0.42458   0.16229   0.52179   1.000
    C285    C    0.92459   0.16229   0.52179   1.000
    C286    C    0.44657   0.10889   0.42874   1.000
    C287    C    0.94658   0.10889   0.42874   1.000
    C288    C    0.47292   0.23121   0.57789   1.000
    C289    C    0.97293   0.23121   0.57789   1.000
    C290    C    0.45406   0.29008   0.83900   1.000
    C291    C    0.95407   0.29008   0.83979   1.000
    C292    C    0.05680   0.26809   0.78531   1.000
    C293    C    0.55681   0.26809   0.78531   1.000
    C294    C    0.43708   0.20619   0.78120   1.000
    C295    C    0.93708   0.20619   0.78120   1.000
    C296    C    0.48183   0.15141   0.72138   1.000
    C297    C    0.98184   0.15141   0.72138   1.000
    C298    C    0.04314   0.18365   0.72522   1.000
    C299    C    0.54315   0.18365   0.72522   1.000
    C300    C    0.46465   0.06209   0.65195   1.000
    C301    C    0.96466   0.06209   0.65195   1.000
    C302    C    0.18071   0.46371   0.95105   1.000
    C303    C    0.68072   0.46371   0.95105   1.000
    C304    C    0.23810   0.45406   0.89361   1.000
    C305    C    0.73811   0.45406   0.89361   1.000
    C306    C    0.25796   0.35946   0.83757   1.000
    C307    C    0.75797   0.35947   0.83757   1.000
    C308    C    0.27999   0.31978   0.89090   1.000
    C309    C    0.78000   0.31978   0.89090   1.000
    C310    C    0.30631   0.34662   0.76865   1.000
    C311    C    0.80632   0.34662   0.76865   1.000
    C312    C    0.28732   0.54969   0.70989   1.000
    C313    C    0.78733   0.54970   0.70989   1.000
    C314    C    0.39008   0.51716   0.73180   1.000
    C315    C    0.89009   0.51717   0.73180   1.000
    C316    C    0.27034   0.57506   0.79377   1.000
    C317    C    0.77035   0.57506   0.79377   1.000
    C318    C    0.31511   0.56997   0.84851   1.000
    C319    C    0.81512   0.56997   0.84851   1.000
    C320    C    0.37643   0.54155   0.81623   1.000
    C321    C    0.87645   0.54155   0.81623   1.000
    C322    C    0.29795   0.58988   0.93783   1.000
    C323    C    0.79796   0.58988   0.93783   1.000
    C324    C    0.38014   0.32343   0.45712   1.000
    C325    C    0.88015   0.32343   0.45712   1.000
    C326    C    0.21336   0.13402   0.67660   1.000
    C327    C    0.71337   0.13402   0.67661   1.000
    C328    C    0.04671   0.54261   0.86609   1.000
    C329    C    0.54672   0.54261   0.86609   1.000
    C330    C    0.13010   0.67662   0.54287   1.000
    C331    C    0.63011   0.67662   0.54287   1.000
    C332    C    0.46335   0.86597   0.32343   1.000
    C333    C    0.96336   0.86596   0.32343   1.000
    C334    C    0.29677   0.45733   0.13383   1.000
    C335    C    0.79678   0.45733   0.13380   1.000
    C336    C    0.37459   0.56651   0.51150   1.000
    C337    C    0.87460   0.56651   0.51150   1.000
    C338    C    0.42945   0.84179   0.52036   1.000
    C339    C    0.92946   0.84179   0.52036   1.000
    C340    C    0.20793   0.94502   0.43371   1.000
    C341    C    0.70795   0.94502   0.43371   1.000
    C342    C    0.26270   0.67851   0.15839   1.000
    C343    C    0.76272   0.67851   0.15839   1.000
    C344    C    0.04124   0.48864   0.05506   1.000
    C345    C    0.54125   0.48864   0.05506   1.000
    C346    C    0.09607   0.47996   0.32156   1.000
    C347    C    0.59608   0.47996   0.32156   1.000
    C348    C    0.12461   0.43354   0.48851   1.000
    C349    C    0.62462   0.43354   0.48851   1.000
    C350    C    0.17943   0.15825   0.47970   1.000
    C351    C    0.67944   0.15825   0.47970   1.000
    C352    C    0.45792   0.05499   0.56633   1.000
    C353    C    0.95793   0.05499   0.56633   1.000
    C354    C    0.01276   0.32147   0.84161   1.000
    C355    C    0.51277   0.32147   0.84161   1.000
    C356    C    0.29123   0.51134   0.94492   1.000
    C357    C    0.79124   0.51134   0.94492   1.000
    C358    C    0.34603   0.52009   0.67846   1.000
    C359    C    0.84604   0.52009   0.67846   1.000
    C360    C    0.26646   0.48737   0.51838   1.000
    C361    C    0.76647   0.48737   0.51838   1.000
    C362    C    0.21695   0.50321   0.41609   1.000
    C363    C    0.71696   0.50321   0.41609   1.000
    C364    C    0.09976   0.03105   0.51268   1.000
    C365    C    0.59977   0.03105   0.51260   1.000
    C366    C    0.05028   0.91292   0.49687   1.000
    C367    C    0.55029   0.91292   0.49687   1.000
    C368    C    0.43313   0.48165   0.96900   1.000
    C369    C    0.93314   0.48165   0.96900   1.000
    C370    C    0.38359   0.58402   0.08710   1.000
    C371    C    0.88359   0.58402   0.08712   1.000
    C372    C    0.01645   0.51270   0.48165   1.000
    C373    C    0.51646   0.51271   0.48165   1.000
    C374    C    0.46696   0.49683   0.58391   1.000
    C375    C    0.96697   0.49683   0.58391   1.000
    C376    C    0.34978   0.96898   0.48730   1.000
    C377    C    0.84979   0.96898   0.48730   1.000
    C378    C    0.30025   0.08710   0.50314   1.000
    C379    C    0.80026   0.08710   0.50314   1.000
    C380    C    0.18312   0.51834   0.03097   1.000
    C381    C    0.68313   0.51834   0.03097   1.000
    C382    C    0.13361   0.41598   0.91285   1.000
    C383    C    0.63362   0.41598   0.91285   1.000
    O384    O    0.56672   0.39055   0.03909   1.000
    O385    O    0.06671   0.39055   0.03948   1.000
    O386    O    0.73329   0.53413   0.05360   1.000
    O387    O    0.68193   0.49103   0.99101   1.000
    O388    O    0.23328   0.53413   0.05360   1.000
    O389    O    0.18191   0.49103   0.99101   1.000
    O390    O    0.52547   0.39231   0.05187   1.000
    O391    O    0.02546   0.39231   0.05187   1.000
    O392    O    0.40714   0.56015   0.06802   1.000
    O393    O    0.45940   0.54111   0.07765   1.000
    O394    O    0.43192   0.50897   0.00896   1.000
    O395    O    0.90715   0.56015   0.06803   1.000
    O396    O    0.95941   0.54111   0.07765   1.000
    O397    O    0.93193   0.50897   0.00896   1.000
    O398    O    0.04461   0.44938   0.05862   1.000
    O399    O    0.06289   0.50432   0.06331   1.000
    O400    O    0.01467   0.51728   0.08071   1.000
    O401    O    0.03735   0.46935   0.98941   1.000
    O402    O    0.54463   0.44938   0.05862   1.000
    O403    O    0.56290   0.50432   0.06331   1.000
    O404    O    0.51467   0.51729   0.08071   1.000
    O405    O    0.53735   0.46935   0.98941   1.000
    O406    O    0.05657   0.42008   0.10684   1.000
    O407    O    0.55659   0.42009   0.10684   1.000
    O408    O    0.51162   0.67738   0.08603   1.000
    O409    O    0.01162   0.67738   0.08603   1.000
    O410    O    0.05148   0.66477   0.09001   1.000
    O411    O    0.55149   0.66476   0.09025   1.000
    O412    O    0.83352   0.56697   0.08168   1.000
    O413    O    0.79012   0.50362   0.10502   1.000
    O414    O    0.77308   0.61422   0.11731   1.000
    O415    O    0.78735   0.53063   0.01057   1.000
    O416    O    0.33351   0.56697   0.08167   1.000
    O417    O    0.29011   0.50362   0.10503   1.000
    O418    O    0.27307   0.61421   0.11731   1.000
    O419    O    0.28734   0.53063   0.01057   1.000
    O420    O    0.97901   0.53546   0.12833   1.000
    O421    O    0.99801   0.59323   0.13437   1.000
    O422    O    0.47900   0.53546   0.12833   1.000
    O423    O    0.49802   0.59323   0.13437   1.000
    O424    O    0.03485   0.71440   0.13014   1.000
    O425    O    0.01893   0.66035   0.13569   1.000
    O426    O    0.53485   0.71440   0.13014   1.000
    O427    O    0.51894   0.66035   0.13569   1.000
    O428    O    0.18719   0.68754   0.13685   1.000
    O429    O    0.68720   0.68754   0.13685   1.000
    O430    O    0.64533   0.46035   0.16392   1.000
    O431    O    0.14532   0.46035   0.16395   1.000
    O432    O    0.59583   0.44425   0.16760   1.000
    O433    O    0.54278   0.42754   0.17888   1.000
    O434    O    0.09582   0.44424   0.16763   1.000
    O435    O    0.04277   0.42754   0.17888   1.000
    O436    O    0.23335   0.69424   0.15932   1.000
    O437    O    0.28473   0.70518   0.18652   1.000
    O438    O    0.73336   0.69424   0.15932   1.000
    O439    O    0.78474   0.70518   0.18652   1.000
    O440    O    0.69553   0.75192   0.18953   1.000
    O441    O    0.19552   0.75192   0.18953   1.000
    O442    O    0.98600   0.65717   0.17903   1.000
    O443    O    0.03210   0.64694   0.19683   1.000
    O444    O    0.48601   0.65717   0.17903   1.000
    O445    O    0.53211   0.64694   0.19683   1.000
    O446    O    0.63331   0.47064   0.22596   1.000
    O447    O    0.13330   0.47063   0.22598   1.000
    O448    O    0.49625   0.41371   0.19540   1.000
    O449    O    0.99624   0.41371   0.19540   1.000
    O450    O    0.07964   0.63914   0.21789   1.000
    O451    O    0.57965   0.63914   0.21789   1.000
    O452    O    0.02887   0.43772   0.24821   1.000
    O453    O    0.52889   0.43772   0.24821   1.000
    O454    O    0.83033   0.71825   0.21219   1.000
    O455    O    0.33032   0.71825   0.21219   1.000
    O456    O    0.29994   0.77408   0.24470   1.000
    O457    O    0.79995   0.77408   0.24470   1.000
    O458    O    0.66289   0.80476   0.21837   1.000
    O459    O    0.16288   0.80475   0.21837   1.000
    O460    O    0.20942   0.82124   0.24872   1.000
    O461    O    0.70943   0.82124   0.24872   1.000
    O462    O    0.04782   0.63932   0.25041   1.000
    O463    O    0.05975   0.68778   0.25321   1.000
    O464    O    0.54783   0.63932   0.25041   1.000
    O465    O    0.55976   0.68778   0.25320   1.000
    O466    O    0.86817   0.41594   0.28555   1.000
    O467    O    0.36815   0.41594   0.28559   1.000
    O468    O    0.16368   0.49398   0.28179   1.000
    O469    O    0.11810   0.48140   0.29488   1.000
    O470    O    0.66370   0.49398   0.28180   1.000
    O471    O    0.61811   0.48140   0.29489   1.000
    O472    O    0.26247   0.83246   0.27669   1.000
    O473    O    0.31197   0.83611   0.29648   1.000
    O474    O    0.76248   0.83246   0.27669   1.000
    O475    O    0.81198   0.83612   0.29648   1.000
    O476    O    0.39306   0.56576   0.31256   1.000
    O477    O    0.89307   0.56576   0.31256   1.000
    O478    O    0.22323   0.89328   0.31336   1.000
    O479    O    0.72324   0.89328   0.31336   1.000
    O480    O    0.06672   0.46518   0.30585   1.000
    O481    O    0.02055   0.44946   0.31259   1.000
    O482    O    0.56673   0.46519   0.30585   1.000
    O483    O    0.52057   0.44946   0.31259   1.000
    O484    O    0.84497   0.40875   0.32257   1.000
    O485    O    0.88484   0.42555   0.33514   1.000
    O486    O    0.85228   0.47551   0.33974   1.000
    O487    O    0.34496   0.40875   0.32257   1.000
    O488    O    0.38483   0.42555   0.33515   1.000
    O489    O    0.35227   0.47551   0.33975   1.000
    O490    O    0.10643   0.50318   0.38583   1.000
    O491    O    0.60644   0.50318   0.38584   1.000
    O492    O    0.95675   0.89483   0.39852   1.000
    O493    O    0.45674   0.89483   0.39854   1.000
    O494    O    0.31933   0.52210   0.34304   1.000
    O495    O    0.81934   0.52210   0.34308   1.000
    O496    O    0.19211   0.94827   0.34063   1.000
    O497    O    0.69212   0.94828   0.34063   1.000
    O498    O    0.36543   0.55013   0.35333   1.000
    O499    O    0.38113   0.61139   0.36108   1.000
    O500    O    0.41296   0.57898   0.36115   1.000
    O501    O    0.86545   0.55013   0.35333   1.000
    O502    O    0.88115   0.61140   0.36110   1.000
    O503    O    0.91297   0.57899   0.36113   1.000
    O504    O    0.73337   0.96063   0.35124   1.000
    O505    O    0.71130   0.94148   0.39090   1.000
    O506    O    0.23336   0.96063   0.35124   1.000
    O507    O    0.21129   0.94148   0.39090   1.000
    O508    O    0.71458   0.74970   0.38898   1.000
    O509    O    0.21457   0.74970   0.38898   1.000
    O510    O    0.83136   0.54131   0.40697   1.000
    O511    O    0.33135   0.54131   0.40697   1.000
    O512    O    0.15014   0.35105   0.39043   1.000
    O513    O    0.65016   0.35105   0.39044   1.000
    O514    O    0.10889   0.34039   0.39211   1.000
    O515    O    0.60890   0.34039   0.39211   1.000
    O516    O    0.64573   0.87171   0.40718   1.000
    O517    O    0.14572   0.87171   0.40718   1.000
    O518    O    0.42825   0.08590   0.40856   1.000
    O519    O    0.92826   0.08590   0.40856   1.000
    O520    O    0.07964   0.21817   0.41340   1.000
    O521    O    0.57965   0.21817   0.41340   1.000
    O522    O    0.95148   0.13001   0.41562   1.000
    O523    O    0.45147   0.13001   0.41565   1.000
    O524    O    0.64000   0.31315   0.41987   1.000
    O525    O    0.62802   0.39071   0.44923   1.000
    O526    O    0.13999   0.31315   0.41987   1.000
    O527    O    0.12801   0.39071   0.44923   1.000
    O528    O    0.66688   0.51480   0.43310   1.000
    O529    O    0.74052   0.50796   0.43995   1.000
    O530    O    0.16687   0.51480   0.43310   1.000
    O531    O    0.24050   0.50796   0.43995   1.000
    O532    O    0.24637   0.78220   0.42140   1.000
    O533    O    0.74639   0.78220   0.42140   1.000
    O534    O    0.96814   0.09013   0.42536   1.000
    O535    O    0.46813   0.09013   0.42536   1.000
    O536    O    0.22647   0.74686   0.43463   1.000
    O537    O    0.19883   0.80327   0.45021   1.000
    O538    O    0.72648   0.74686   0.43463   1.000
    O539    O    0.69884   0.80327   0.45021   1.000
    O540    O    0.62619   0.24852   0.42725   1.000
    O541    O    0.61227   0.18936   0.43741   1.000
    O542    O    0.12618   0.24852   0.42725   1.000
    O543    O    0.11226   0.18936   0.43741   1.000
    O544    O    0.93559   0.13559   0.47526   1.000
    O545    O    0.43558   0.13559   0.47526   1.000
    O546    O    0.67925   0.27644   0.44396   1.000
    O547    O    0.17924   0.27644   0.44396   1.000
    O548    O    0.18137   0.91936   0.43668   1.000
    O549    O    0.22959   0.93677   0.44113   1.000
    O550    O    0.20402   0.01067   0.48001   1.000
    O551    O    0.68138   0.91936   0.43668   1.000
    O552    O    0.72961   0.93677   0.44113   1.000
    O553    O    0.70403   0.01067   0.48005   1.000
    O554    O    0.66473   0.86571   0.45894   1.000
    O555    O    0.62610   0.92241   0.46350   1.000
    O556    O    0.16472   0.86571   0.45894   1.000
    O557    O    0.12609   0.92241   0.46350   1.000
    O558    O    0.60393   0.13673   0.44915   1.000
    O559    O    0.10392   0.13673   0.44915   1.000
    O560    O    0.15008   0.15918   0.46490   1.000
    O561    O    0.06661   0.51955   0.46587   1.000
    O562    O    0.12069   0.47996   0.46930   1.000
    O563    O    0.12344   0.60150   0.49649   1.000
    O564    O    0.65010   0.15918   0.46490   1.000
    O565    O    0.56662   0.51955   0.46588   1.000
    O566    O    0.62070   0.47996   0.46931   1.000
    O567    O    0.62345   0.60150   0.49649   1.000
    O568    O    0.29274   0.53664   0.45903   1.000
    O569    O    0.31232   0.59302   0.46478   1.000
    O570    O    0.34801   0.56354   0.48287   1.000
    O571    O    0.79275   0.53664   0.45903   1.000
    O572    O    0.81233   0.59302   0.46478   1.000
    O573    O    0.84802   0.56354   0.48287   1.000
    O574    O    0.37346   0.39855   0.50352   1.000
    O575    O    0.87347   0.39855   0.50352   1.000
    O576    O    0.72877   0.29617   0.46001   1.000
    O577    O    0.71672   0.24444   0.47032   1.000
    O578    O    0.22876   0.29617   0.46003   1.000
    O579    O    0.21671   0.24444   0.47032   1.000
    O580    O    0.26526   0.50004   0.49109   1.000
    O581    O    0.76527   0.50004   0.49109   1.000
    O582    O    0.89996   0.94633   0.48045   1.000
    O583    O    0.00021   0.91830   0.48524   1.000
    O584    O    0.93980   0.88274   0.49698   1.000
    O585    O    0.95403   0.98934   0.51997   1.000
    O586    O    0.39995   0.94633   0.48048   1.000
    O587    O    0.50021   0.91831   0.48526   1.000
    O588    O    0.43978   0.88274   0.49701   1.000
    O589    O    0.45402   0.98934   0.51999   1.000
    O590    O    0.15271   0.82107   0.47821   1.000
    O591    O    0.65272   0.82107   0.47821   1.000
    O592    O    0.18561   0.86443   0.52478   1.000
    O593    O    0.68562   0.86443   0.52478   1.000
    O594    O    0.70149   0.18633   0.48111   1.000
    O595    O    0.68978   0.11728   0.50305   1.000
    O596    O    0.20147   0.18633   0.48111   1.000
    O597    O    0.18977   0.11728   0.50300   1.000
    O598    O    0.39624   0.55905   0.49581   1.000
    O599    O    0.89625   0.55905   0.49581   1.000
    O600    O    0.01525   0.50002   0.50892   1.000
    O601    O    0.51526   0.50002   0.50892   1.000
    O602    O    0.74709   0.21195   0.49366   1.000
    O603    O    0.24708   0.21195   0.49366   1.000
    O604    O    0.34857   0.00893   0.49995   1.000
    O605    O    0.84858   0.00893   0.49998   1.000
    O606    O    0.57384   0.93203   0.49211   1.000
    O607    O    0.59858   0.99109   0.49998   1.000
    O608    O    0.07383   0.93203   0.49211   1.000
    O609    O    0.09857   0.99109   0.50001   1.000
    O610    O    0.14626   0.44098   0.50419   1.000
    O611    O    0.09803   0.43652   0.51714   1.000
    O612    O    0.64627   0.44098   0.50419   1.000
    O613    O    0.59804   0.43652   0.51714   1.000
    O614    O    0.99708   0.78799   0.50634   1.000
    O615    O    0.49708   0.78799   0.50634   1.000
    O616    O    0.82382   0.06799   0.50790   1.000
    O617    O    0.75019   0.08171   0.51477   1.000
    O618    O    0.32381   0.06799   0.50787   1.000
    O619    O    0.25018   0.08171   0.51472   1.000
    O620    O    0.37068   0.52009   0.53071   1.000
    O621    O    0.37798   0.60933   0.55078   1.000
    O622    O    0.87069   0.52009   0.53071   1.000
    O623    O    0.87799   0.60934   0.55078   1.000
    O624    O    0.37606   0.07760   0.53649   1.000
    O625    O    0.64994   0.05368   0.51950   1.000
    O626    O    0.87607   0.07760   0.53653   1.000
    O627    O    0.14993   0.05368   0.51949   1.000
    O628    O    0.45148   0.81367   0.51892   1.000
    O629    O    0.46670   0.75552   0.52965   1.000
    O630    O    0.95149   0.81367   0.51892   1.000
    O631    O    0.96671   0.75552   0.52968   1.000
    O632    O    0.81663   0.48052   0.53415   1.000
    O633    O    0.31662   0.48052   0.53415   1.000
    O634    O    0.90012   0.84090   0.53518   1.000
    O635    O    0.40010   0.84090   0.53518   1.000
    O636    O    0.90265   0.17895   0.52181   1.000
    O637    O    0.91468   0.13430   0.54109   1.000
    O638    O    0.94876   0.19675   0.54984   1.000
    O639    O    0.40264   0.17895   0.52181   1.000
    O640    O    0.41467   0.13430   0.54109   1.000
    O641    O    0.44875   0.19675   0.54984   1.000
    O642    O    0.56237   0.40705   0.53526   1.000
    O643    O    0.06236   0.40705   0.53526   1.000
    O644    O    0.20673   0.10517   0.60145   1.000
    O645    O    0.70674   0.10517   0.60150   1.000
    O646    O    0.54276   0.46341   0.54098   1.000
    O647    O    0.49051   0.49208   0.56005   1.000
    O648    O    0.04275   0.46342   0.54098   1.000
    O649    O    0.99051   0.49208   0.56005   1.000
    O650    O    0.97874   0.70376   0.53994   1.000
    O651    O    0.47873   0.70376   0.53990   1.000
    O652    O    0.42922   0.72356   0.55602   1.000
    O653    O    0.92923   0.72356   0.55605   1.000
    O654    O    0.58138   0.45877   0.59306   1.000
    O655    O    0.08137   0.45877   0.59303   1.000
    O656    O    0.91687   0.48525   0.56691   1.000
    O657    O    0.85641   0.49688   0.61419   1.000
    O658    O    0.41687   0.48525   0.56691   1.000
    O659    O    0.35640   0.49688   0.61419   1.000
    O660    O    0.35394   0.86341   0.55096   1.000
    O661    O    0.36227   0.81075   0.56267   1.000
    O662    O    0.85396   0.86341   0.55096   1.000
    O663    O    0.86229   0.81075   0.56267   1.000
    O664    O    0.47957   0.06323   0.55890   1.000
    O665    O    0.97896   0.06323   0.55890   1.000
    O666    O    0.97638   0.25316   0.56542   1.000
    O667    O    0.47636   0.25316   0.56542   1.000
    O668    O    0.93135   0.08065   0.56336   1.000
    O669    O    0.89568   0.12830   0.59285   1.000
    O670    O    0.43134   0.08065   0.56336   1.000
    O671    O    0.39567   0.12830   0.59285   1.000
    O672    O    0.96130   0.05854   0.60914   1.000
    O673    O    0.46128   0.05854   0.60914   1.000
    O674    O    0.37617   0.75155   0.57279   1.000
    O675    O    0.38997   0.68689   0.58015   1.000
    O676    O    0.87618   0.75155   0.57279   1.000
    O677    O    0.88998   0.68689   0.58015   1.000
    O678    O    0.71815   0.90989   0.57470   1.000
    O679    O    0.70150   0.87001   0.58440   1.000
    O680    O    0.67826   0.91411   0.59147   1.000
    O681    O    0.21813   0.90989   0.57470   1.000
    O682    O    0.20148   0.87000   0.58440   1.000
    O683    O    0.17825   0.91411   0.59147   1.000
    O684    O    0.82965   0.78197   0.58668   1.000
    O685    O    0.32964   0.78197   0.58668   1.000
    O686    O    0.99628   0.21782   0.57868   1.000
    O687    O    0.96447   0.25032   0.61104   1.000
    O688    O    0.49628   0.21782   0.57868   1.000
    O689    O    0.46445   0.25032   0.61104   1.000
    O690    O    0.35886   0.65967   0.60788   1.000
    O691    O    0.40011   0.64898   0.60958   1.000
    O692    O    0.85887   0.65967   0.60790   1.000
    O693    O    0.90012   0.64898   0.60958   1.000
    O694    O    0.66304   0.42113   0.63884   1.000
    O695    O    0.16303   0.42113   0.63884   1.000
    O696    O    0.63124   0.38872   0.63891   1.000
    O697    O    0.13123   0.38872   0.63891   1.000
    O698    O    0.11548   0.44997   0.64665   1.000
    O699    O    0.06936   0.47799   0.65693   1.000
    O700    O    0.10226   0.52459   0.66024   1.000
    O701    O    0.61549   0.44997   0.64667   1.000
    O702    O    0.56937   0.47799   0.65695   1.000
    O703    O    0.60227   0.52459   0.66027   1.000
    O704    O    0.48337   0.03938   0.64880   1.000
    O705    O    0.98337   0.03938   0.64880   1.000
    O706    O    0.13478   0.57456   0.66485   1.000
    O707    O    0.63479   0.57456   0.66485   1.000
    O708    O    0.44212   0.05179   0.65944   1.000
    O709    O    0.47324   0.10675   0.68667   1.000
    O710    O    0.94213   0.05179   0.65944   1.000
    O711    O    0.97325   0.10675   0.68667   1.000
    O712    O    0.64315   0.43436   0.68744   1.000
    O713    O    0.14314   0.43436   0.68740   1.000
    O714    O    0.27051   0.55066   0.68746   1.000
    O715    O    0.77052   0.55066   0.68746   1.000
    O716    O    0.59490   0.59134   0.67743   1.000
    O717    O    0.09489   0.59134   0.67743   1.000
    O718    O    0.81669   0.53490   0.69417   1.000
    O719    O    0.86806   0.51863   0.70513   1.000
    O720    O    0.31667   0.53489   0.69417   1.000
    O721    O    0.36805   0.51863   0.70513   1.000
    O722    O    0.61812   0.58418   0.71441   1.000
    O723    O    0.11811   0.58418   0.71441   1.000
    O724    O    0.06198   0.16383   0.70345   1.000
    O725    O    0.56198   0.16383   0.70345   1.000
    O726    O    0.41364   0.50601   0.71820   1.000
    O727    O    0.91365   0.50601   0.71820   1.000
    O728    O    0.77884   0.56238   0.75183   1.000
    O729    O    0.27883   0.56238   0.75183   1.000
    O730    O    0.51249   0.16753   0.72330   1.000
    O731    O    0.45946   0.17880   0.75129   1.000
    O732    O    0.01249   0.16753   0.72330   1.000
    O733    O    0.95946   0.17880   0.75129   1.000
    O734    O    0.80978   0.31219   0.74672   1.000
    O735    O    0.30977   0.31219   0.74672   1.000
    O736    O    0.54998   0.22587   0.75526   1.000
    O737    O    0.04997   0.22587   0.75526   1.000
    O738    O    0.29784   0.36067   0.74953   1.000
    O739    O    0.79785   0.36067   0.74953   1.000
    O740    O    0.38325   0.52936   0.77402   1.000
    O741    O    0.88327   0.52936   0.77402   1.000
    O742    O    0.32966   0.36082   0.78204   1.000
    O743    O    0.28213   0.35304   0.80311   1.000
    O744    O    0.82967   0.36082   0.78204   1.000
    O745    O    0.78215   0.35304   0.80311   1.000
    O746    O    0.91293   0.19534   0.78168   1.000
    O747    O    0.94558   0.24813   0.81050   1.000
    O748    O    0.41293   0.19534   0.78168   1.000
    O749    O    0.44557   0.24813   0.81010   1.000
    O750    O    0.58037   0.28167   0.78775   1.000
    O751    O    0.53479   0.29478   0.81346   1.000
    O752    O    0.08036   0.28167   0.78775   1.000
    O753    O    0.03478   0.29478   0.81346   1.000
    O754    O    0.74620   0.58639   0.80464   1.000
    O755    O    0.79274   0.57251   0.82114   1.000
    O756    O    0.24619   0.58639   0.80464   1.000
    O757    O    0.29273   0.57251   0.82114   1.000
    O758    O    0.23603   0.34283   0.82092   1.000
    O759    O    0.73605   0.34283   0.82092   1.000
    O760    O    0.84578   0.55576   0.83237   1.000
    O761    O    0.89529   0.53961   0.83604   1.000
    O762    O    0.34577   0.55576   0.83237   1.000
    O763    O    0.39528   0.53961   0.83604   1.000
    O764    O    0.26898   0.33962   0.86424   1.000
    O765    O    0.24803   0.40676   0.86559   1.000
    O766    O    0.76899   0.33962   0.86424   1.000
    O767    O    0.74804   0.40676   0.86559   1.000
    O768    O    0.48342   0.30577   0.84030   1.000
    O769    O    0.43726   0.31253   0.86281   1.000
    O770    O    0.98341   0.30577   0.84070   1.000
    O771    O    0.93727   0.31253   0.86321   1.000
    O772    O    0.52311   0.38576   0.88268   1.000
    O773    O    0.02310   0.38576   0.88268   1.000
    O774    O    0.80654   0.57992   0.89317   1.000
    O775    O    0.30653   0.57992   0.89317   1.000
    O776    O    0.28490   0.28555   0.86975   1.000
    O777    O    0.78491   0.28555   0.86975   1.000
    O778    O    0.22899   0.46455   0.87166   1.000
    O779    O    0.72900   0.46455   0.87166   1.000
    O780    O    0.04008   0.49633   0.89492   1.000
    O781    O    0.54009   0.49633   0.89492   1.000
    O782    O    0.30154   0.33517   0.90965   1.000
    O783    O    0.26167   0.32258   0.91389   1.000
    O784    O    0.80155   0.33517   0.90965   1.000
    O785    O    0.76169   0.32258   0.91389   1.000
    O786    O    0.26466   0.48270   0.91926   1.000
    O787    O    0.20940   0.45889   0.92233   1.000
    O788    O    0.76468   0.48270   0.91926   1.000
    O789    O    0.70941   0.45889   0.92233   1.000
    O790    O    0.08353   0.43302   0.91830   1.000
    O791    O    0.15716   0.43984   0.93195   1.000
    O792    O    0.58354   0.43302   0.91830   1.000
    O793    O    0.65717   0.43985   0.93195   1.000
    O794    O    0.98329   0.46585   0.94637   1.000
    O795    O    0.48329   0.46585   0.94637   1.000
    O796    O    0.31289   0.49566   0.93667   1.000
    O797    O    0.81290   0.49566   0.93667   1.000
    O798    O    0.79460   0.55061   0.94138   1.000
    O799    O    0.77542   0.60768   0.94815   1.000
    O800    O    0.81667   0.60944   0.96052   1.000
    O801    O    0.29459   0.55061   0.94138   1.000
    O802    O    0.27541   0.60768   0.94815   1.000
    O803    O    0.31666   0.60943   0.96052   1.000
loop_
    _geom_bond_atom_site_label_1
    _geom_bond_atom_site_label_2
    _geom_bond_distance
    _geom_bond_site_symmetry_2
    _ccdc_geom_bond_type
    C101   O384      0.55261      .   S
    C257   O384      0.55261      .   S
    C100   O385      0.54955      .   S
    C256   O385      0.54955      .   S
    C381   O386      1.11378      .   S
    C11    O386      1.11378      .   S
    C381   O387      0.63851  1_554   S
    C303   O387      0.63851      .   S
    C380   O388      1.11379      .   S
    C10    O388      1.11379      .   S
    C380   O389      0.63851  1_554   S
    C302   O389      0.63851      .   S
    C99    O390      0.54937      .   S
    C257   O390      0.54937      .   S
    C98    O391      0.54936      .   S
    C256   O391      0.54936      .   S
    C236   O392      0.63257      .   S
    C370   O392      0.63257      .   S
    C236   O393      0.77053      .   S
    C238   O393      0.77053      .   S
    C236   O394      0.63857      .   S
    C368   O394      0.63857  1_556   S
    C237   O395      0.63261      .   S
    C371   O395      0.63261      .   S
    C237   O396      0.77053      .   S
    C239   O396      0.77053      .   S
    C237   O397      0.63857      .   S
    C369   O397      0.63857  1_556   S
    C344   O398      0.74576      .   S
    C256   O398      0.74576      .   S
    C344   O399      0.51643      .   S
    C72    O399      0.51643      .   S
    C344   O400      0.74355      .   S
    C239   O400      0.74355  1_655   S
    C344   O401      1.05752  1_554   S
    C4     O401      1.05752      .   S
    C345   O402      0.74575      .   S
    C257   O402      0.74575      .   S
    C345   O403      0.51643      .   S
    C73    O403      0.51643      .   S
    C345   O404      0.74369      .   S
    C238   O404      0.74369      .   S
    C345   O405      1.05752  1_554   S
    C5     O405      1.05752      .   S
    C256   O406      0.75432      .   S
    C252   O406      0.75432      .   S
    C257   O407      0.75432      .   S
    C253   O407      0.75432      .   S
    C80    O408      0.54906      .   S
    C243   O408      0.54906      .   S
    C81    O409      0.54895  1_655   S
    C242   O409      0.54895      .   S
    C82    O410      0.55143      .   S
    C242   O410      0.55143      .   S
    C83    O411      0.54981      .   S
    C243   O411      0.54981      .   S
    C11    O412      1.08591      .   S
    C371   O412      1.08591      .   S
    C11    O413      1.19183      .   S
    C335   O413      1.19183      .   S
    C11    O414      1.03997      .   S
    C343   O414      1.03997      .   S
    C11    O415      1.05753      .   S
    C357   O415      1.05753  1_556   S
    C10    O416      1.08593      .   S
    C370   O416      1.08593      .   S
    C10    O417      1.19205      .   S
    C334   O417      1.19205      .   S
    C10    O418      1.03998      .   S
    C342   O418      1.03998      .   S
    C10    O419      1.05753      .   S
    C356   O419      1.05753  1_556   S
    C239   O420      0.55154      .   S
    C75    O420      0.55154      .   S
    C239   O421      0.77148      .   S
    C240   O421      0.77148  1_455   S
    C238   O422      0.55154      .   S
    C74    O422      0.55154      .   S
    C238   O423      0.77153      .   S
    C241   O423      0.77153      .   S
    C242   O424      0.54917      .   S
    C78    O424      0.54917      .   S
    C242   O425      0.76507      .   S
    C240   O425      0.76507      .   S
    C243   O426      0.54917      .   S
    C79    O426      0.54917      .   S
    C243   O427      0.76506      .   S
    C241   O427      0.76506      .   S
    C60    O428      0.54375      .   S
    C224   O428      0.54375      .   S
    C61    O429      0.54374      .   S
    C225   O429      0.54374      .   S
    C97    O430      0.54534      .   S
    C255   O430      0.54534      .   S
    C96    O431      0.54571      .   S
    C254   O431      0.54571      .   S
    C253   O432      0.69993      .   S
    C255   O432      0.69993      .   S
    C253   O433      0.69957      .   S
    C251   O433      0.69957      .   S
    C252   O434      0.70006      .   S
    C254   O434      0.70006      .   S
    C252   O435      0.69957      .   S
    C250   O435      0.69957      .   S
    C342   O436      0.67498      .   S
    C224   O436      0.67498      .   S
    C342   O437      0.67723      .   S
    C226   O437      0.67723      .   S
    C343   O438      0.67498      .   S
    C225   O438      0.67498      .   S
    C343   O439      0.67723      .   S
    C227   O439      0.67723      .   S
    C225   O440      0.69528      .   S
    C229   O440      0.69528      .   S
    C224   O441      0.69527      .   S
    C228   O441      0.69527      .   S
    C240   O442      0.54950  1_455   S
    C77    O442      0.54950      .   S
    C240   O443      0.76506      .   S
    C244   O443      0.76506      .   S
    C241   O444      0.54964      .   S
    C76    O444      0.54964      .   S
    C241   O445      0.76506      .   S
    C245   O445      0.76506      .   S
    C255   O446      0.69441      .   S
    C249   O446      0.69441      .   S
    C254   O447      0.69381      .   S
    C248   O447      0.69381      .   S
    C94    O448      0.54511      .   S
    C251   O448      0.54511      .   S
    C95    O449      0.54497      .   S
    C250   O449      0.54497  1_455   S
    C84    O450      0.55001      .   S
    C244   O450      0.55001      .   S
    C85    O451      0.55000      .   S
    C245   O451      0.55000      .   S
    C250   O452      0.69532      .   S
    C246   O452      0.69532      .   S
    C251   O453      0.69532      .   S
    C247   O453      0.69532      .   S
    C63    O454      0.54400      .   S
    C227   O454      0.54400      .   S
    C62    O455      0.54400      .   S
    C226   O455      0.54400      .   S
    C226   O456      0.69379      .   S
    C232   O456      0.69379      .   S
    C227   O457      0.69380      .   S
    C233   O457      0.69380      .   S
    C65    O458      0.54513      .   S
    C229   O458      0.54513      .   S
    C64    O459      0.54514      .   S
    C228   O459      0.54514      .   S
    C228   O460      0.69952      .   S
    C230   O460      0.69952      .   S
    C229   O461      0.69952      .   S
    C231   O461      0.69952      .   S
    C244   O462      0.54974      .   S
    C86    O462      0.54974      .   S
    C244   O463      0.54921      .   S
    C88    O463      0.54921      .   S
    C245   O464      0.54973      .   S
    C87    O464      0.54973      .   S
    C245   O465      0.54920      .   S
    C89    O465      0.54920      .   S
    C19    O466      0.54976      .   S
    C199   O466      0.54976      .   S
    C18    O467      0.54919      .   S
    C198   O467      0.54919      .   S
    C248   O468      0.54402      .   S
    C92    O468      0.54402      .   S
    C248   O469      0.67726      .   S
    C346   O469      0.67726      .   S
    C249   O470      0.54401      .   S
    C93    O470      0.54401      .   S
    C249   O471      0.67720      .   S
    C347   O471      0.67720      .   S
    C232   O472      0.70003      .   S
    C230   O472      0.70003      .   S
    C232   O473      0.54573      .   S
    C66    O473      0.54573      .   S
    C233   O474      0.70003      .   S
    C231   O474      0.70003      .   S
    C233   O475      0.54573      .   S
    C67    O475      0.54573      .   S
    C28    O476      0.54919      .   S
    C200   O476      0.54919      .   S
    C29    O477      0.54919      .   S
    C201   O477      0.54919      .   S
    C230   O478      0.75429      .   S
    C234   O478      0.75429      .   S
    C231   O479      0.75429      .   S
    C235   O479      0.75429      .   S
    C246   O480      0.67499      .   S
    C346   O480      0.67499      .   S
    C246   O481      0.54372      .   S
    C90    O481      0.54372      .   S
    C247   O482      0.67498      .   S
    C347   O482      0.67498      .   S
    C247   O483      0.54373      .   S
    C91    O483      0.54373      .   S
    C199   O484      0.54914      .   S
    C21    O484      0.54914      .   S
    C199   O485      0.54986      .   S
    C23    O485      0.54986      .   S
    C199   O486      0.76503      .   S
    C197   O486      0.76503      .   S
    C198   O487      0.54909      .   S
    C20    O487      0.54909      .   S
    C198   O488      0.54981      .   S
    C22    O488      0.54981      .   S
    C198   O489      0.76504      .   S
    C196   O489      0.76504      .   S
    C346   O490      1.03982      .   S
    C6     O490      1.03982      .   S
    C347   O491      1.03989      .   S
    C7     O491      1.03989      .   S
    C333   O492      1.19148      .   S
    C9     O492      1.19148      .   S
    C332   O493      1.19189      .   S
    C8     O493      1.19189      .   S
    C16    O494      0.54998      .   S
    C196   O494      0.54998      .   S
    C17    O495      0.54964      .   S
    C197   O495      0.54964      .   S
    C68    O496      0.54937      .   S
    C234   O496      0.54937      .   S
    C69    O497      0.54936      .   S
    C235   O497      0.54936      .   S
    C200   O498      0.76507      .   S
    C196   O498      0.76507      .   S
    C200   O499      0.54975      .   S
    C26    O499      0.54975      .   S
    C200   O500      0.54997      .   S
    C24    O500      0.54997      .   S
    C201   O501      0.76507      .   S
    C197   O501      0.76507      .   S
    C201   O502      0.54974      .   S
    C27    O502      0.54974      .   S
    C201   O503      0.54985      .   S
    C25    O503      0.54985      .   S
    C235   O504      0.54953      .   S
    C71    O504      0.54953      .   S
    C235   O505      0.74581      .   S
    C341   O505      0.74581      .   S
    C234   O506      0.54952      .   S
    C70    O506      0.54952      .   S
    C234   O507      0.74581      .   S
    C340   O507      0.74581      .   S
    C57    O508      0.54973      .   S
    C223   O508      0.54973      .   S
    C56    O509      0.54973      .   S
    C222   O509      0.54973      .   S
    C197   O510      0.77151      .   S
    C195   O510      0.77151      .   S
    C196   O511      0.77151      .   S
    C194   O511      0.77151      .   S
    C130   O512      0.54957      .   S
    C278   O512      0.54957      .   S
    C131   O513      0.54952      .   S
    C279   O513      0.54952      .   S
    C128   O514      0.54937      .   S
    C278   O514      0.54937      .   S
    C129   O515      0.54937      .   S
    C279   O515      0.54937      .   S
    C45    O516      0.55147      .   S
    C217   O516      0.55147      .   S
    C44    O517      0.55147      .   S
    C216   O517      0.55147      .   S
    C140   O518      0.54908      .   S
    C286   O518      0.54908      .   S
    C141   O519      0.54909      .   S
    C287   O519      0.54909      .   S
    C124   O520      0.54513      .   S
    C272   O520      0.54513      .   S
    C125   O521      0.54513      .   S
    C273   O521      0.54513      .   S
    C139   O522      0.54957      .   S
    C287   O522      0.54957      .   S
    C138   O523      0.54916      .   S
    C286   O523      0.54916      .   S
    C279   O524      0.75445      .   S
    C275   O524      0.75445      .   S
    C279   O525      0.74580      .   S
    C349   O525      0.74580      .   S
    C278   O526      0.75444      .   S
    C274   O526      0.75444      .   S
    C278   O527      0.74580      .   S
    C348   O527      0.74580      .   S
    C363   O528      1.08597      .   S
    C7     O528      1.08597      .   S
    C363   O529      0.63262      .   S
    C193   O529      0.63262      .   S
    C362   O530      1.08594      .   S
    C6     O530      1.08594      .   S
    C362   O531      0.63261      .   S
    C192   O531      0.63261      .   S
    C54    O532      0.55000      .   S
    C222   O532      0.55000      .   S
    C55    O533      0.54999      .   S
    C223   O533      0.54999      .   S
    C143   O534      0.54979      .   S
    C287   O534      0.54979      .   S
    C142   O535      0.54979      .   S
    C286   O535      0.54979      .   S
    C222   O536      0.54917      .   S
    C58    O536      0.54917      .   S
    C222   O537      0.76507      .   S
    C218   O537      0.76507      .   S
    C223   O538      0.54917      .   S
    C59    O538      0.54917      .   S
    C223   O539      0.76507      .   S
    C219   O539      0.76507      .   S
    C273   O540      0.69957      .   S
    C275   O540      0.69957      .   S
    C273   O541      0.69527      .   S
    C269   O541      0.69527      .   S
    C272   O542      0.69957      .   S
    C274   O542      0.69957      .   S
    C272   O543      0.69527      .   S
    C268   O543      0.69527      .   S
    C287   O544      0.76501      .   S
    C285   O544      0.76501      .   S
    C286   O545      0.76500      .   S
    C284   O545      0.76500      .   S
    C275   O546      0.70005      .   S
    C277   O546      0.70005      .   S
    C274   O547      0.70006      .   S
    C276   O547      0.70006      .   S
    C340   O548      0.74369      .   S
    C216   O548      0.74369      .   S
    C340   O549      0.51643      .   S
    C42    O549      0.51643      .   S
    C340   O550      1.05686  1_565   S
    C2     O550      1.05686      .   S
    C341   O551      0.74370      .   S
    C217   O551      0.74370      .   S
    C341   O552      0.51643      .   S
    C43    O552      0.51643      .   S
    C341   O553      1.05704  1_565   S
    C3     O553      1.05704      .   S
    C217   O554      0.77160      .   S
    C219   O554      0.77160      .   S
    C217   O555      0.77048      .   S
    C215   O555      0.77048      .   S
    C216   O556      0.77159      .   S
    C218   O556      0.77159      .   S
    C216   O557      0.77047      .   S
    C214   O557      0.77047      .   S
    C121   O558      0.54374      .   S
    C269   O558      0.54374      .   S
    C120   O559      0.54374      .   S
    C268   O559      0.54374      .   S
    C268   O560      0.67499      .   S
    C350   O560      0.67499      .   S
    C6     O561      1.11383      .   S
    C372   O561      1.11383      .   S
    C6     O562      1.05753      .   S
    C348   O562      1.05753      .   S
    C6     O563      1.19216      .   S
    C330   O563      1.19216      .   S
    C269   O564      0.67498      .   S
    C351   O564      0.67498      .   S
    C7     O565      1.11380      .   S
    C373   O565      1.11380      .   S
    C7     O566      1.05747      .   S
    C349   O566      1.05747      .   S
    C7     O567      1.19215      .   S
    C331   O567      1.19215      .   S
    C194   O568      0.77058      .   S
    C192   O568      0.77058      .   S
    C194   O569      0.55147      .   S
    C14    O569      0.55147      .   S
    C194   O570      0.74374      .   S
    C336   O570      0.74374      .   S
    C195   O571      0.77058      .   S
    C193   O571      0.77058      .   S
    C195   O572      0.55147      .   S
    C15    O572      0.55147      .   S
    C195   O573      0.74374      .   S
    C337   O573      0.74374      .   S
    C324   O574      1.19216      .   S
    C0     O574      1.19216      .   S
    C325   O575      1.19217      .   S
    C1     O575      1.19217      .   S
    C277   O576      0.54584      .   S
    C127   O576      0.54584      .   S
    C277   O577      0.69381      .   S
    C271   O577      0.69381      .   S
    C276   O578      0.54575      .   S
    C126   O578      0.54575      .   S
    C276   O579      0.69381      .   S
    C270   O579      0.69381      .   S
    C192   O580      0.63857      .   S
    C360   O580      0.63857      .   S
    C193   O581      0.63857      .   S
    C361   O581      0.63857      .   S
    C9     O582      1.11385      .   S
    C377   O582      1.11385      .   S
    C9     O583      1.08583  1_655   S
    C366   O583      1.08583      .   S
    C9     O584      1.04037      .   S
    C339   O584      1.04037      .   S
    C9     O585      1.05720      .   S
    C353   O585      1.05720  1_545   S
    C8     O586      1.11389      .   S
    C376   O586      1.11389      .   S
    C8     O587      1.08592      .   S
    C367   O587      1.08592      .   S
    C8     O588      1.04005      .   S
    C338   O588      1.04005      .   S
    C8     O589      1.05709      .   S
    C352   O589      1.05709  1_545   S
    C46    O590      0.54964      .   S
    C218   O590      0.54964      .   S
    C47    O591      0.54964      .   S
    C219   O591      0.54964      .   S
    C218   O592      0.76490      .   S
    C220   O592      0.76490      .   S
    C219   O593      0.76490      .   S
    C221   O593      0.76490      .   S
    C351   O594      0.67723      .   S
    C271   O594      0.67723      .   S
    C351   O595      1.04010      .   S
    C3     O595      1.04010      .   S
    C350   O596      0.67722      .   S
    C270   O596      0.67722      .   S
    C350   O597      1.03948      .   S
    C2     O597      1.03948      .   S
    C12    O598      0.51644      .   S
    C336   O598      0.51644      .   S
    C13    O599      0.51641      .   S
    C337   O599      0.51641      .   S
    C372   O600      0.63852      .   S
    C258   O600      0.63852      .   S
    C373   O601      0.63854      .   S
    C259   O601      0.63854      .   S
    C271   O602      0.54401      .   S
    C123   O602      0.54401      .   S
    C270   O603      0.54402      .   S
    C122   O603      0.54402      .   S
    C376   O604      0.63841  1_565   S
    C280   O604      0.63841      .   S
    C377   O605      0.63830  1_565   S
    C281   O605      0.63830      .   S
    C215   O606      0.63263      .   S
    C367   O606      0.63263      .   S
    C215   O607      0.63856      .   S
    C365   O607      0.63856  1_545   S
    C214   O608      0.63263      .   S
    C366   O608      0.63263      .   S
    C214   O609      0.63841      .   S
    C364   O609      0.63841  1_545   S
    C348   O610      0.51644      .   S
    C102   O610      0.51644      .   S
    C348   O611      0.74376      .   S
    C260   O611      0.74376      .   S
    C349   O612      0.51643      .   S
    C103   O612      0.51643      .   S
    C349   O613      0.74376      .   S
    C261   O613      0.74376      .   S
    C32    O614      0.54386  1_455   S
    C205   O614      0.54386      .   S
    C33    O615      0.54401      .   S
    C204   O615      0.54401      .   S
    C379   O616      0.63264      .   S
    C281   O616      0.63264      .   S
    C379   O617      1.08588      .   S
    C3     O617      1.08588      .   S
    C378   O618      0.63243      .   S
    C280   O618      0.63243      .   S
    C378   O619      1.08567      .   S
    C2     O619      1.08567      .   S
    C336   O620      1.05756      .   S
    C0     O620      1.05756      .   S
    C336   O621      0.74581      .   S
    C212   O621      0.74581      .   S
    C337   O622      1.05757      .   S
    C1     O622      1.05757      .   S
    C337   O623      0.74581      .   S
    C213   O623      0.74581      .   S
    C280   O624      0.77060      .   S
    C282   O624      0.77060      .   S
    C365   O625      1.11400      .   S
    C3     O625      1.11400      .   S
    C281   O626      0.77047      .   S
    C283   O626      0.77047      .   S
    C364   O627      1.11412      .   S
    C2     O627      1.11412      .   S
    C204   O628      0.67723      .   S
    C338   O628      0.67723      .   S
    C204   O629      0.69343      .   S
    C210   O629      0.69343      .   S
    C205   O630      0.67723      .   S
    C339   O630      0.67723      .   S
    C205   O631      0.69388      .   S
    C211   O631      0.69388      .   S
    C361   O632      1.11356      .   S
    C1     O632      1.11356      .   S
    C360   O633      1.11358      .   S
    C0     O633      1.11358      .   S
    C339   O634      0.67499      .   S
    C203   O634      0.67499      .   S
    C338   O635      0.67499      .   S
    C202   O635      0.67499      .   S
    C285   O636      0.54965      .   S
    C137   O636      0.54965      .   S
    C285   O637      0.77160      .   S
    C283   O637      0.77160      .   S
    C285   O638      0.76505      .   S
    C289   O638      0.76505      .   S
    C284   O639      0.54965      .   S
    C136   O639      0.54965      .   S
    C284   O640      0.77160      .   S
    C282   O640      0.77160      .   S
    C284   O641      0.76505      .   S
    C288   O641      0.76505      .   S
    C105   O642      0.55147      .   S
    C261   O642      0.55147      .   S
    C104   O643      0.55147      .   S
    C260   O643      0.55147      .   S
    C2     O644      1.19261      .   S
    C326   O644      1.19261      .   S
    C3     O645      1.19195      .   S
    C327   O645      1.19195      .   S
    C259   O646      0.77057      .   S
    C261   O646      0.77057      .   S
    C259   O647      0.63262      .   S
    C374   O647      0.63262      .   S
    C258   O648      0.77056      .   S
    C260   O648      0.77056      .   S
    C258   O649      0.63249  1_455   S
    C375   O649      0.63249      .   S
    C37    O650      0.54572      .   S
    C211   O650      0.54572      .   S
    C36    O651      0.54590      .   S
    C210   O651      0.54590      .   S
    C210   O652      0.70031      .   S
    C208   O652      0.70031      .   S
    C211   O653      0.70006      .   S
    C209   O653      0.70006      .   S
    C261   O654      0.77157      .   S
    C263   O654      0.77157      .   S
    C260   O655      0.77117      .   S
    C262   O655      0.77117      .   S
    C1     O656      1.08606      .   S
    C375   O656      1.08606      .   S
    C1     O657      1.03988      .   S
    C359   O657      1.03988      .   S
    C0     O658      1.08607      .   S
    C374   O658      1.08607      .   S
    C0     O659      1.03989      .   S
    C358   O659      1.03989      .   S
    C202   O660      0.54375      .   S
    C30    O660      0.54375      .   S
    C202   O661      0.69529      .   S
    C206   O661      0.69529      .   S
    C203   O662      0.54375      .   S
    C31    O662      0.54375      .   S
    C203   O663      0.69530      .   S
    C207   O663      0.69530      .   S
    C132   O664      0.51645      .   S
    C352   O664      0.51645      .   S
    C133   O665      0.50505  1_455   S
    C353   O665      0.50505      .   S
    C149   O666      0.54920      .   S
    C289   O666      0.54920      .   S
    C148   O667      0.54921      .   S
    C288   O667      0.54921      .   S
    C283   O668      0.74371      .   S
    C353   O668      0.74371      .   S
    C283   O669      0.55149      .   S
    C135   O669      0.55149      .   S
    C282   O670      0.74371      .   S
    C352   O670      0.74371      .   S
    C282   O671      0.55149      .   S
    C134   O671      0.55149      .   S
    C353   O672      0.74573      .   S
    C301   O672      0.74573      .   S
    C352   O673      0.74573      .   S
    C300   O673      0.74573      .   S
    C208   O674      0.69958      .   S
    C206   O674      0.69958      .   S
    C208   O675      0.75443      .   S
    C212   O675      0.75443      .   S
    C209   O676      0.69958      .   S
    C207   O676      0.69958      .   S
    C209   O677      0.75442      .   S
    C213   O677      0.75442      .   S
    C221   O678      0.54976      .   S
    C53    O678      0.54976      .   S
    C221   O679      0.54931      .   S
    C49    O679      0.54931      .   S
    C221   O680      0.54910      .   S
    C51    O680      0.54910      .   S
    C220   O681      0.54976      .   S
    C52    O681      0.54976      .   S
    C220   O682      0.54931      .   S
    C48    O682      0.54931      .   S
    C220   O683      0.54910      .   S
    C50    O683      0.54910      .   S
    C207   O684      0.54513      .   S
    C35    O684      0.54513      .   S
    C206   O685      0.54513      .   S
    C34    O685      0.54513      .   S
    C289   O686      0.54985      .   S
    C144   O686      0.54985  1_455   S
    C289   O687      0.54938      .   S
    C147   O687      0.54938      .   S
    C288   O688      0.54999      .   S
    C145   O688      0.54999      .   S
    C288   O689      0.54938      .   S
    C146   O689      0.54938      .   S
    C212   O690      0.54921      .   S
    C38    O690      0.54921      .   S
    C212   O691      0.54953      .   S
    C40    O691      0.54953      .   S
    C213   O692      0.54939      .   S
    C39    O692      0.54939      .   S
    C213   O693      0.54953      .   S
    C41    O693      0.54953      .   S
    C115   O694      0.54978      .   S
    C267   O694      0.54978      .   S
    C114   O695      0.54976      .   S
    C266   O695      0.54976      .   S
    C117   O696      0.54978      .   S
    C267   O696      0.54978      .   S
    C116   O697      0.54978      .   S
    C266   O697      0.54978      .   S
    C262   O698      0.76502      .   S
    C266   O698      0.76502      .   S
    C262   O699      0.54985      .   S
    C106   O699      0.54985      .   S
    C262   O700      0.76502      .   S
    C264   O700      0.76502      .   S
    C263   O701      0.76480      .   S
    C267   O701      0.76480      .   S
    C263   O702      0.54960      .   S
    C107   O702      0.54960      .   S
    C263   O703      0.76506      .   S
    C265   O703      0.76506      .   S
    C161   O704      0.54953      .   S
    C300   O704      0.54953      .   S
    C160   O705      0.54941  1_455   S
    C301   O705      0.54941      .   S
    C112   O706      0.54977      .   S
    C264   O706      0.54977      .   S
    C113   O707      0.54978      .   S
    C265   O707      0.54978      .   S
    C300   O708      0.54935      .   S
    C158   O708      0.54935      .   S
    C300   O709      0.75428      .   S
    C296   O709      0.75428      .   S
    C301   O710      0.54936      .   S
    C159   O710      0.54936      .   S
    C301   O711      0.75428      .   S
    C297   O711      0.75428      .   S
    C267   O712      0.54969      .   S
    C119   O712      0.54969      .   S
    C266   O713      0.54902      .   S
    C118   O713      0.54902      .   S
    C180   O714      0.54373      .   S
    C312   O714      0.54373      .   S
    C181   O715      0.54373      .   S
    C313   O715      0.54373      .   S
    C111   O716      0.54908      .   S
    C265   O716      0.54908      .   S
    C110   O717      0.54909      .   S
    C264   O717      0.54909      .   S
    C359   O718      0.67499      .   S
    C313   O718      0.67499      .   S
    C359   O719      0.67725      .   S
    C315   O719      0.67725      .   S
    C358   O720      0.67500      .   S
    C312   O720      0.67500      .   S
    C358   O721      0.67725      .   S
    C314   O721      0.67725      .   S
    C265   O722      0.54917      .   S
    C109   O722      0.54917      .   S
    C264   O723      0.54917      .   S
    C108   O723      0.54917      .   S
    C156   O724      0.54571      .   S
    C298   O724      0.54571      .   S
    C157   O725      0.54571      .   S
    C299   O725      0.54571      .   S
    C182   O726      0.54403      .   S
    C314   O726      0.54403      .   S
    C183   O727      0.54403      .   S
    C315   O727      0.54403      .   S
    C313   O728      0.69527      .   S
    C317   O728      0.69527      .   S
    C312   O729      0.69527      .   S
    C316   O729      0.69527      .   S
    C296   O730      0.70005      .   S
    C299   O730      0.70005      .   S
    C296   O731      0.69937      .   S
    C294   O731      0.69937      .   S
    C297   O732      0.69988  1_655   S
    C298   O732      0.69988      .   S
    C297   O733      0.69937      .   S
    C295   O733      0.69937      .   S
    C179   O734      0.54920      .   S
    C311   O734      0.54920      .   S
    C178   O735      0.54921      .   S
    C310   O735      0.54921      .   S
    C299   O736      0.69380      .   S
    C293   O736      0.69380      .   S
    C298   O737      0.69380      .   S
    C292   O737      0.69380      .   S
    C176   O738      0.54975      .   S
    C310   O738      0.54975      .   S
    C177   O739      0.54976      .   S
    C311   O739      0.54976      .   S
    C314   O740      0.69377      .   S
    C320   O740      0.69377      .   S
    C315   O741      0.69377      .   S
    C321   O741      0.69377      .   S
    C310   O742      0.55000      .   S
    C174   O742      0.55000      .   S
    C310   O743      0.76511      .   S
    C306   O743      0.76511      .   S
    C311   O744      0.55000      .   S
    C175   O744      0.55000      .   S
    C311   O745      0.76510      .   S
    C307   O745      0.76510      .   S
    C295   O746      0.54520      .   S
    C155   O746      0.54520      .   S
    C295   O747      0.69534      .   S
    C291   O747      0.69534      .   S
    C294   O748      0.54519      .   S
    C154   O748      0.54519      .   S
    C294   O749      0.69383      .   S
    C290   O749      0.69383      .   S
    C293   O750      0.54400      .   S
    C153   O750      0.54400      .   S
    C293   O751      0.67724      .   S
    C355   O751      0.67724      .   S
    C292   O752      0.54401      .   S
    C152   O752      0.54401      .   S
    C292   O753      0.67724      .   S
    C354   O753      0.67724      .   S
    C317   O754      0.54515      .   S
    C185   O754      0.54515      .   S
    C317   O755      0.69958      .   S
    C319   O755      0.69958      .   S
    C316   O756      0.54515      .   S
    C184   O756      0.54515      .   S
    C316   O757      0.69958      .   S
    C318   O757      0.69958      .   S
    C166   O758      0.54966      .   S
    C306   O758      0.54966      .   S
    C167   O759      0.54966      .   S
    C307   O759      0.54966      .   S
    C321   O760      0.70006      .   S
    C319   O760      0.70006      .   S
    C321   O761      0.54575      .   S
    C187   O761      0.54575      .   S
    C320   O762      0.70006      .   S
    C318   O762      0.70006      .   S
    C320   O763      0.54576      .   S
    C186   O763      0.54576      .   S
    C306   O764      0.76499      .   S
    C308   O764      0.76499      .   S
    C306   O765      0.77152      .   S
    C304   O765      0.77152      .   S
    C307   O766      0.76499      .   S
    C309   O766      0.76499      .   S
    C307   O767      0.77151      .   S
    C305   O767      0.77151      .   S
    C290   O768      0.67369      .   S
    C355   O768      0.67369      .   S
    C290   O769      0.54665      .   S
    C150   O769      0.54665      .   S
    C291   O770      0.67481      .   S
    C354   O770      0.67481  1_455   S
    C291   O771      0.54374      .   S
    C151   O771      0.54374      .   S
    C355   O772      1.03990      .   S
    C5     O772      1.03990      .   S
    C354   O773      1.03991      .   S
    C4     O773      1.03991      .   S
    C319   O774      0.75439      .   S
    C323   O774      0.75439      .   S
    C318   O775      0.75439      .   S
    C322   O775      0.75439      .   S
    C168   O776      0.54920      .   S
    C308   O776      0.54920      .   S
    C169   O777      0.54920      .   S
    C309   O777      0.54920      .   S
    C164   O778      0.55152      .   S
    C304   O778      0.55152      .   S
    C165   O779      0.55153      .   S
    C305   O779      0.55153      .   S
    C328   O780      1.19216      .   S
    C4     O780      1.19216      .   S
    C329   O781      1.19216      .   S
    C5     O781      1.19216      .   S
    C308   O782      0.54981      .   S
    C172   O782      0.54981      .   S
    C308   O783      0.54909      .   S
    C170   O783      0.54909      .   S
    C309   O784      0.54981      .   S
    C173   O784      0.54981      .   S
    C309   O785      0.54909      .   S
    C171   O785      0.54909      .   S
    C304   O786      0.74371      .   S
    C356   O786      0.74371      .   S
    C304   O787      0.77058      .   S
    C302   O787      0.77058      .   S
    C305   O788      0.74371      .   S
    C357   O788      0.74371      .   S
    C305   O789      0.77059      .   S
    C303   O789      0.77059      .   S
    C382   O790      1.08582      .   S
    C4     O790      1.08582      .   S
    C382   O791      0.63263      .   S
    C302   O791      0.63263      .   S
    C383   O792      1.08584      .   S
    C5     O792      1.08584      .   S
    C383   O793      0.63263      .   S
    C303   O793      0.63263      .   S
    C4     O794      1.11360  1_455   S
    C369   O794      1.11360      .   S
    C5     O795      1.11377      .   S
    C368   O795      1.11377      .   S
    C162   O796      0.51643      .   S
    C356   O796      0.51643      .   S
    C163   O797      0.51643      .   S
    C357   O797      0.51643      .   S
    C323   O798      0.74574      .   S
    C357   O798      0.74574      .   S
    C323   O799      0.54937      .   S
    C189   O799      0.54937      .   S
    C323   O800      0.54948      .   S
    C191   O800      0.54948      .   S
    C322   O801      0.74574      .   S
    C356   O801      0.74574      .   S
    C322   O802      0.54936      .   S
    C188   O802      0.54936      .   S
    C322   O803      0.54951      .   S
    C190   O803      0.54951      .   S
