# CIF file generated by openbabel 2.4.90, see http://openbabel.sf.net
data_I
_chemical_name_common ''
_cell_length_a 20.994
_cell_length_b 18.038
_cell_length_c 18.041
_cell_angle_alpha 120.021
_cell_angle_beta 90.005
_cell_angle_gamma 89.982
_space_group_name_H-M_alt 'P 1'
_space_group_name_Hall 'P 1'
loop_
    _symmetry_equiv_pos_as_xyz
    x,y,z
loop_
    _atom_site_label
    _atom_site_type_symbol
    _atom_site_fract_x
    _atom_site_fract_y
    _atom_site_fract_z
    _atom_site_occupancy
    Zr0     Zr   0.36678   0.47367   0.54992   1.000
    Zr1     Zr   0.86678   0.47367   0.54992   1.000
    Zr2     Zr   0.20010   0.07632   0.52630   1.000
    Zr3     Zr   0.70011   0.07632   0.52639   1.000
    Zr4     Zr   0.03345   0.45006   0.92375   1.000
    Zr5     Zr   0.53346   0.45006   0.92375   1.000
    Zr6     Zr   0.11678   0.52639   0.45010   1.000
    Zr7     Zr   0.61679   0.52639   0.45011   1.000
    Zr8     Zr   0.45012   0.92369   0.47365   1.000
    Zr9     Zr   0.95013   0.92369   0.47360   1.000
    Zr10    Zr   0.28344   0.54992   0.07623   1.000
    Zr11    Zr   0.78345   0.54992   0.07623   1.000
    Zr12    Zr   0.38014   0.32343   0.45712   1.000
    Zr13    Zr   0.88015   0.32343   0.45712   1.000
    Zr14    Zr   0.21336   0.13402   0.67660   1.000
    Zr15    Zr   0.71337   0.13402   0.67661   1.000
    Zr16    Zr   0.04671   0.54261   0.86609   1.000
    Zr17    Zr   0.54672   0.54261   0.86609   1.000
    Zr18    Zr   0.13010   0.67662   0.54287   1.000
    Zr19    Zr   0.63011   0.67662   0.54287   1.000
    Zr20    Zr   0.46335   0.86597   0.32343   1.000
    Zr21    Zr   0.96336   0.86596   0.32343   1.000
    Zr22    Zr   0.29677   0.45733   0.13383   1.000
    Zr23    Zr   0.79678   0.45733   0.13380   1.000
    O24     O    0.79012   0.50362   0.10502   1.000
    O25     O    0.29011   0.50362   0.10503   1.000
    O26     O    0.95675   0.89483   0.39852   1.000
    O27     O    0.45674   0.89483   0.39854   1.000
    O28     O    0.12344   0.60150   0.49649   1.000
    O29     O    0.62345   0.60150   0.49649   1.000
    O30     O    0.37346   0.39855   0.50352   1.000
    O31     O    0.87347   0.39855   0.50352   1.000
    O32     O    0.20673   0.10517   0.60145   1.000
    O33     O    0.70674   0.10517   0.60150   1.000
    O34     O    0.04008   0.49633   0.89492   1.000
    O35     O    0.54009   0.49633   0.89492   1.000
    N36     N    0.05196   0.53604   0.17101   1.000
    O37     O    0.04465   0.50269   0.08021   1.000
    O38     O    0.07919   0.51961   0.27842   1.000
    N39     N    0.21863   0.82908   0.36510   1.000
    O40     O    0.21132   0.91987   0.42255   1.000
    O41     O    0.24585   0.72165   0.24121   1.000
    N42     N    0.13533   0.36490   0.53582   1.000
    O43     O    0.16255   0.24109   0.51941   1.000
    O44     O    0.12801   0.42243   0.50256   1.000
    N45     N    0.80196   0.46396   0.82895   1.000
    O46     O    0.79465   0.49730   0.91976   1.000
    O47     O    0.82919   0.48042   0.72157   1.000
    N48     N    0.71864   0.82908   0.36510   1.000
    O49     O    0.71133   0.91987   0.42258   1.000
    O50     O    0.74586   0.72165   0.24121   1.000
    N51     N    0.88533   0.63517   0.46419   1.000
    O52     O    0.87801   0.57763   0.49745   1.000
    O53     O    0.91256   0.75895   0.48059   1.000
    N54     N    0.38532   0.63517   0.46419   1.000
    O55     O    0.37800   0.57763   0.49745   1.000
    O56     O    0.41255   0.75895   0.48060   1.000
    N57     N    0.30195   0.46396   0.82895   1.000
    O58     O    0.32917   0.48042   0.72157   1.000
    O59     O    0.29464   0.49730   0.91976   1.000
    N60     N    0.55197   0.53604   0.17099   1.000
    O61     O    0.54466   0.50269   0.08020   1.000
    O62     O    0.57920   0.51961   0.27841   1.000
    N63     N    0.63534   0.36490   0.53582   1.000
    O64     O    0.66256   0.24109   0.51943   1.000
    O65     O    0.62802   0.42243   0.50257   1.000
    N66     N    0.96858   0.17094   0.63492   1.000
    O67     O    0.96130   0.08014   0.57744   1.000
    O68     O    0.99584   0.27835   0.75880   1.000
    N69     N    0.46862   0.17094   0.63490   1.000
    O70     O    0.46132   0.08014   0.57744   1.000
    O71     O    0.49587   0.27835   0.75879   1.000
    C72     C    0.49916   0.49895   0.53392   1.000
    O73     O    0.54411   0.45656   0.53616   1.000
    O74     O    0.53289   0.50925   0.49990   1.000
    O75     O    0.45801   0.49210   0.55042   1.000
    C76     C    0.99916   0.49896   0.53392   1.000
    O77     O    0.04410   0.45656   0.53616   1.000
    O78     O    0.03289   0.50925   0.49990   1.000
    O79     O    0.95802   0.49210   0.55042   1.000
    C80     C    0.24916   0.50110   0.46609   1.000
    O81     O    0.29409   0.54350   0.46385   1.000
    O82     O    0.28289   0.49081   0.50012   1.000
    O83     O    0.20801   0.50795   0.44959   1.000
    C84     C    0.74917   0.50110   0.46609   1.000
    O85     O    0.79410   0.54350   0.46385   1.000
    O86     O    0.78290   0.49081   0.50012   1.000
    O87     O    0.70802   0.50795   0.44960   1.000
    C88     C    0.91581   0.53398   0.03502   1.000
    O89     O    0.96075   0.53628   0.07967   1.000
    O90     O    0.87467   0.55048   0.05835   1.000
    O91     O    0.94955   0.49992   0.99070   1.000
    C92     C    0.41581   0.53398   0.03501   1.000
    O93     O    0.46074   0.53628   0.07966   1.000
    O94     O    0.44955   0.49992   0.99069   1.000
    O95     O    0.37466   0.55048   0.05834   1.000
    C96     C    0.16581   0.46601   0.96496   1.000
    O97     O    0.21074   0.46372   0.92030   1.000
    O98     O    0.12467   0.44951   0.94163   1.000
    O99     O    0.19955   0.50007   0.00928   1.000
    C100    C    0.66582   0.46601   0.96496   1.000
    O101    O    0.62468   0.44951   0.94163   1.000
    O102    O    0.69956   0.50007   0.00928   1.000
    O103    O    0.71075   0.46372   0.92030   1.000
    C104    C    0.58248   0.96503   0.49894   1.000
    O105    O    0.62743   0.92039   0.45662   1.000
    O106    O    0.54134   0.94167   0.49210   1.000
    O107    O    0.61621   0.00936   0.50922   1.000
    C108    C    0.08247   0.96503   0.49897   1.000
    O109    O    0.12742   0.92039   0.45663   1.000
    O110    O    0.11620   0.00936   0.50923   1.000
    O111    O    0.04134   0.94167   0.49210   1.000
    C112    C    0.33247   0.03499   0.50101   1.000
    O113    O    0.37740   0.07963   0.54335   1.000
    O114    O    0.29132   0.05835   0.50787   1.000
    O115    O    0.36621   0.99066   0.49074   1.000
    C116    C    0.83248   0.03499   0.50103   1.000
    O117    O    0.87740   0.07963   0.54338   1.000
    O118    O    0.86622   0.99066   0.49074   1.000
    O119    O    0.79133   0.05835   0.50790   1.000
loop_
    _geom_bond_atom_site_label_1
    _geom_bond_atom_site_label_2
    _geom_bond_distance
    _geom_bond_site_symmetry_2
    _ccdc_geom_bond_type
    Zr11   O24       1.19183      .   S
    Zr23   O24       1.19183      .   S
    Zr10   O25       1.19205      .   S
    Zr22   O25       1.19205      .   S
    Zr21   O26       1.19148      .   S
    Zr9    O26       1.19148      .   S
    Zr20   O27       1.19189      .   S
    Zr8    O27       1.19189      .   S
    Zr6    O28       1.19216      .   S
    Zr18   O28       1.19216      .   S
    Zr7    O29       1.19215      .   S
    Zr19   O29       1.19215      .   S
    Zr12   O30       1.19216      .   S
    Zr0    O30       1.19216      .   S
    Zr13   O31       1.19217      .   S
    Zr1    O31       1.19217      .   S
    Zr2    O32       1.19261      .   S
    Zr14   O32       1.19261      .   S
    Zr3    O33       1.19195      .   S
    Zr15   O33       1.19195      .   S
    Zr16   O34       1.19216      .   S
    Zr4    O34       1.19216      .   S
    Zr17   O35       1.19216      .   S
    Zr5    O35       1.19216      .   S
    N36    O37       1.44321      .   S
    Zr4    O37       2.49846  1_556   S
    N36    O38       2.17814      .   S
    Zr6    O38       3.13873      .   S
    N39    O40       1.44270      .   S
    Zr2    O40       2.49734  1_545   S
    N39    O41       2.17791      .   S
    Zr10   O41       3.13850      .   S
    N42    O43       2.17693      .   S
    Zr2    O43       3.13669      .   S
    N42    O44       1.44345      .   S
    Zr6    O44       2.49870      .   S
    N45    O46       1.44343      .   S
    Zr11   O46       2.49870  1_554   S
    N45    O47       2.17798      .   S
    Zr1    O47       3.13855      .   S
    N48    O49       1.44276      .   S
    Zr3    O49       2.49756  1_545   S
    N48    O50       2.17791      .   S
    Zr11   O50       3.13848      .   S
    N51    O52       1.44367      .   S
    Zr1    O52       2.49896      .   S
    N51    O53       2.17711      .   S
    Zr9    O53       3.13744      .   S
    N54    O55       1.44369      .   S
    Zr0    O55       2.49897      .   S
    N54    O56       2.17702      .   S
    Zr8    O56       3.13711      .   S
    N57    O58       2.17799      .   S
    Zr0    O58       3.13858      .   S
    N57    O59       1.44342      .   S
    Zr10   O59       2.49869  1_554   S
    N60    O61       1.44310      .   S
    Zr5    O61       2.49834  1_556   S
    N60    O62       2.17831      .   S
    Zr7    O62       3.13898      .   S
    N63    O64       2.17707      .   S
    Zr3    O64       3.13730      .   S
    N63    O65       1.44345      .   S
    Zr7    O65       2.49863      .   S
    N66    O67       1.44284      .   S
    Zr9    O67       2.49779  1_565   S
    N66    O68       2.17806      .   S
    Zr4    O68       3.13853  1_455   S
    N69    O70       1.44282      .   S
    Zr8    O70       2.49766  1_565   S
    N69    O71       2.17811      .   S
    Zr5    O71       3.13855      .   S
    C72    O73       1.22779      .   S
    N63    O73       2.52792      .   S
    C72    O74       1.01335      .   S
    Zr7    O74       2.06956      .   S
    C72    O75       0.94182      .   S
    Zr0    O75       1.94346      .   S
    C76    O77       1.22773  1_655   S
    N42    O77       2.52785      .   S
    C76    O78       1.01332  1_655   S
    Zr6    O78       2.06956      .   S
    C76    O79       0.94171      .   S
    Zr1    O79       1.94333      .   S
    C80    O81       1.22804      .   S
    N54    O81       2.52863      .   S
    C80    O82       1.01324      .   S
    Zr0    O82       2.06921      .   S
    C80    O83       0.94167      .   S
    Zr6    O83       1.94314      .   S
    C84    O85       1.22804      .   S
    N51    O85       2.52861      .   S
    C84    O86       1.01323      .   S
    Zr1    O86       2.06918      .   S
    C84    O87       0.94166      .   S
    Zr7    O87       1.94315      .   S
    C88    O89       1.22767      .   S
    N36    O89       2.52752  1_455   S
    C88    O90       0.94151      .   S
    Zr11   O90       1.94290      .   S
    C88    O91       1.01333  1_554   S
    Zr4    O91       2.06938  1_455   S
    C92    O93       1.22773      .   S
    N60    O93       2.52764      .   S
    C92    O94       1.01337  1_554   S
    Zr5    O94       2.06959      .   S
    C92    O95       0.94151      .   S
    Zr10   O95       1.94294      .   S
    C96    O97       1.22776      .   S
    N57    O97       2.52784      .   S
    C96    O98       0.94153      .   S
    Zr4    O98       1.94283      .   S
    C96    O99       1.01342  1_556   S
    Zr10   O99       2.06966      .   S
    C100   O101      0.94154      .   S
    Zr5    O101      1.94286      .   S
    C100   O102      1.01341  1_556   S
    Zr11   O102      2.06964      .   S
    C100   O103      1.22777      .   S
    N45    O103      2.52786      .   S
    C104   O105      1.22723      .   S
    N48    O105      2.52649      .   S
    C104   O106      0.94178      .   S
    Zr8    O106      1.94325      .   S
    C104   O107      1.01343  1_565   S
    Zr3    O107      2.06981      .   S
    C108   O109      1.22729      .   S
    N39    O109      2.52655      .   S
    C108   O110      1.01349  1_565   S
    Zr2    O110      2.07008      .   S
    C108   O111      0.94164      .   S
    Zr9    O111      1.94303  1_655   S
    C112   O113      1.22752      .   S
    N69    O113      2.52722      .   S
    C112   O114      0.94162      .   S
    Zr2    O114      1.94293      .   S
    C112   O115      1.01337  1_545   S
    Zr8    O115      2.06973      .   S
    C116   O117      1.22733      .   S
    N66    O117      2.52662      .   S
    C116   O118      1.01328  1_545   S
    Zr9    O118      2.06960      .   S
    C116   O119      0.94160      .   S
    Zr3    O119      1.94303      .   S
