# CIF file generated by openbabel 2.4.90, see http://openbabel.sf.net
data_I
_chemical_name_common ''
_cell_length_a 16.152
_cell_length_b 16.386
_cell_length_c 17.297
_cell_angle_alpha 89.875
_cell_angle_beta 103.749
_cell_angle_gamma 90.013
_space_group_name_H-M_alt 'P 1'
_space_group_name_Hall 'P 1'
loop_
    _symmetry_equiv_pos_as_xyz
    x,y,z
loop_
    _atom_site_label
    _atom_site_type_symbol
    _atom_site_fract_x
    _atom_site_fract_y
    _atom_site_fract_z
    _atom_site_occupancy
    N0      N    0.43682   0.89418   0.91364   1.000
    N1      N    0.84965   0.29418   0.55991   1.000
    N2      N    0.74737   0.24237   0.00849   1.000
    N3      N    0.06288   0.39507   0.08496   1.000
    N4      N    0.93646   0.60452   0.91348   1.000
    N5      N    0.35101   0.20606   0.56064   1.000
    N6      N    0.64892   0.79394   0.43761   1.000
    N7      N    0.25155   0.75775   0.99014   1.000
    N8      N    0.99323   0.99343   0.50231   1.000
    N9      N    0.49950   0.49989   0.49907   1.000
    N10     N    0.56246   0.10484   0.08549   1.000
    N11     N    0.75237   0.74227   0.99041   1.000
    N12     N    0.25909   0.26729   0.00817   1.000
    N13     N    0.14941   0.70585   0.43786   1.000
    Zr14    Zr   0.49996   0.50005   0.99957   1.000
    O15     O    0.38415   0.47289   0.00468   1.000
    O16     O    0.61559   0.52709   0.99423   1.000
    O17     O    0.57517   0.57064   0.99606   1.000
    O18     O    0.42763   0.57724   0.99691   1.000
    O19     O    0.42763   0.43179   0.00283   1.000
    O20     O    0.57194   0.42287   0.00199   1.000
    Zr21    Zr   0.94858   0.98950   0.17434   1.000
    O22     O    0.95999   0.98664   0.27006   1.000
    O23     O    0.89116   0.91599   0.12110   1.000
    O24     O    0.88997   0.06521   0.12794   1.000
    O25     O    0.08362   0.96607   0.10348   1.000
    Zr26    Zr   0.86458   0.54171   0.43691   1.000
    O27     O    0.90903   0.49237   0.34085   1.000
    O28     O    0.94823   0.58663   0.43081   1.000
    O29     O    0.86878   0.47550   0.48135   1.000
    O30     O    0.80681   0.61952   0.43831   1.000
    Zr31    Zr   0.55096   0.48970   0.82359   1.000
    O32     O    0.41603   0.46641   0.89470   1.000
    O33     O    0.60965   0.56529   0.87042   1.000
    O34     O    0.53792   0.48842   0.72875   1.000
    O35     O    0.60849   0.41618   0.87714   1.000
    Zr36    Zr   0.63525   0.04147   0.55990   1.000
    O37     O    0.69250   0.11943   0.55832   1.000
    O38     O    0.63059   0.97525   0.51571   1.000
    O39     O    0.55186   0.08656   0.56657   1.000
    O40     O    0.59075   0.99197   0.65652   1.000
    Zr41    Zr   0.36481   0.95850   0.43964   1.000
    O42     O    0.30720   0.88056   0.44052   1.000
    O43     O    0.40908   0.00775   0.34291   1.000
    O44     O    0.36942   0.02471   0.48350   1.000
    O45     O    0.44815   0.91343   0.43261   1.000
    Zr46    Zr   0.04937   0.01042   0.82330   1.000
    O47     O    0.03525   0.01006   0.72935   1.000
    O48     O    0.11076   0.08595   0.87699   1.000
    O49     O    0.10808   0.93466   0.87007   1.000
    O50     O    0.91483   0.03401   0.89468   1.000
    Zr51    Zr   0.00001   0.00028   0.99967   1.000
    O52     O    0.92794   0.92299   0.99706   1.000
    O53     O    0.88398   0.02767   0.00491   1.000
    O54     O    0.92469   0.07078   0.00314   1.000
    O55     O    0.07500   0.92965   0.99605   1.000
    O56     O    0.11576   0.97281   0.99432   1.000
    Zr57    Zr   0.44806   0.51019   0.17398   1.000
    O58     O    0.39059   0.58383   0.12080   1.000
    O59     O    0.46088   0.51120   0.26896   1.000
    O60     O    0.58315   0.53342   0.10324   1.000
    O61     O    0.39257   0.43696   0.12746   1.000
    Zr62    Zr   0.13513   0.45837   0.55988   1.000
    O63     O    0.13071   0.52455   0.51570   1.000
    O64     O    0.05130   0.41343   0.56620   1.000
    O65     O    0.09058   0.50755   0.65643   1.000
    O66     O    0.19296   0.38054   0.55885   1.000
loop_
    _geom_bond_atom_site_label_1
    _geom_bond_atom_site_label_2
    _geom_bond_distance
    _geom_bond_site_symmetry_2
    _ccdc_geom_bond_type
    Zr14   O15       1.94498  1_556   S
    N3     O15       5.82200      .   S
    Zr14   O16       1.94270      .   S
    N4     O16       5.81830      .   S
    Zr14   O17       1.68862      .   S
    N11    O17       4.02974      .   S
    Zr14   O18       1.71514      .   S
    N7     O18       4.08601      .   S
    Zr14   O19       1.62776  1_556   S
    N12    O19       3.84711      .   S
    Zr14   O20       1.71177  1_556   S
    N2     O20       4.07931      .   S
    Zr21   O22       1.62244      .   S
    N8     O22       3.92613      .   S
    Zr21   O23       1.66061      .   S
    N11    O23       3.98187  1_556   S
    Zr21   O24       1.64757  1_565   S
    N2     O24       3.96426      .   S
    Zr21   O25       2.77118  1_655   S
    N0     O25       7.32411  1_556   S
    Zr26   O27       2.12202      .   S
    N3     O27       5.79378  1_455   S
    Zr26   O28       1.56370      .   S
    N13    O28       3.76836  1_455   S
    Zr26   O29       1.32064      .   S
    N1     O29       3.30921      .   S
    Zr26   O30       1.58367      .   S
    N6     O30       3.82909      .   S
    Zr31   O32       2.77131      .   S
    N3     O32       7.32374  1_554   S
    Zr31   O33       1.65160      .   S
    N11    O33       3.97244      .   S
    Zr31   O34       1.60368      .   S
    N9     O34       3.87661      .   S
    Zr31   O35       1.66104      .   S
    N2     O35       3.98215  1_554   S
    Zr36   O37       1.58085      .   S
    N1     O37       3.82186      .   S
    Zr36   O38       1.32040  1_545   S
    N6     O38       3.30864      .   S
    Zr36   O39       1.56460      .   S
    N5     O39       3.77006      .   S
    Zr36   O40       2.12903  1_545   S
    N0     O40       5.80949      .   S
    Zr41   O42       1.58213      .   S
    N13    O42       3.82558      .   S
    Zr41   O43       2.12714  1_565   S
    N10    O43       5.80550      .   S
    Zr41   O44       1.31709  1_565   S
    N5     O44       3.30235      .   S
    Zr41   O45       1.56553      .   S
    N6     O45       3.77167      .   S
    Zr46   O47       1.58646      .   S
    N8     O47       3.83338  1_665   S
    Zr46   O48       1.71580      .   S
    N12    O48       4.14242  1_554   S
    Zr46   O49       1.65116  1_545   S
    N7     O49       3.97182      .   S
    Zr46   O50       2.77022  1_455   S
    N10    O50       7.31992  1_554   S
    Zr51   O52       1.71334  1_445   S
    N11    O52       4.08254      .   S
    Zr51   O53       1.95027  1_456   S
    N10    O53       5.82770      .   S
    Zr51   O54       1.68935  1_456   S
    N2     O54       4.03082      .   S
    Zr51   O55       1.68750  1_545   S
    N7     O55       4.02721      .   S
    Zr51   O56       1.94661  1_545   S
    N0     O56       5.82673      .   S
    Zr57   O58       1.65946      .   S
    N7     O58       3.97938  1_556   S
    Zr57   O59       1.60633      .   S
    N9     O59       3.88369      .   S
    Zr57   O60       2.76941      .   S
    N4     O60       7.31990  1_556   S
    Zr57   O61       1.59735      .   S
    N12    O61       3.81360      .   S
    Zr62   O63       1.31745      .   S
    N13    O63       3.30233      .   S
    Zr62   O64       1.56746      .   S
    N1     O64       3.77733  1_655   S
    Zr62   O65       2.12917      .   S
    N4     O65       5.81243  1_655   S
    Zr62   O66       1.58347      .   S
    N5     O66       3.82855      .   S
