# CIF file generated by openbabel 2.4.90, see http://openbabel.sf.net
data_I
_chemical_name_common ''
_cell_length_a 20.255
_cell_length_b 18.421
_cell_length_c 18.542
_cell_angle_alpha 89.999
_cell_angle_beta 90.023
_cell_angle_gamma 89.947
_space_group_name_H-M_alt 'P 1'
_space_group_name_Hall 'P 1'
loop_
    _symmetry_equiv_pos_as_xyz
    x,y,z
loop_
    _atom_site_label
    _atom_site_type_symbol
    _atom_site_fract_x
    _atom_site_fract_y
    _atom_site_fract_z
    _atom_site_occupancy
    H0      H    0.08047   0.86302   0.52208   1.000
    H1      H    0.58045   0.86301   0.52207   1.000
    H2      H    0.10475   0.87707   0.82776   1.000
    H3      H    0.60474   0.87707   0.82777   1.000
    H4      H    0.37865   0.00764   0.86706   1.000
    H5      H    0.87864   0.00765   0.86706   1.000
    H6      H    0.02574   0.14787   0.66027   1.000
    H7      H    0.52573   0.14787   0.66027   1.000
    H8      H    0.35404   0.75519   0.69019   1.000
    H9      H    0.85403   0.75519   0.69018   1.000
    H10     H    0.30551   0.99079   0.54940   1.000
    H11     H    0.80550   0.99079   0.54940   1.000
    H12     H    0.16859   0.36513   0.97771   1.000
    H13     H    0.66859   0.36513   0.97771   1.000
    H14     H    0.14582   0.37683   0.67210   1.000
    H15     H    0.64581   0.37683   0.67210   1.000
    H16     H    0.37141   0.50757   0.63294   1.000
    H17     H    0.87140   0.50757   0.63294   1.000
    H18     H    0.22381   0.64820   0.83978   1.000
    H19     H    0.72380   0.64820   0.83978   1.000
    H20     H    0.39602   0.25527   0.81114   1.000
    H21     H    0.89601   0.25527   0.81114   1.000
    H22     H    0.44458   0.49064   0.95048   1.000
    H23     H    0.94458   0.49064   0.95048   1.000
    H24     H    0.41953   0.63696   0.52201   1.000
    H25     H    0.91953   0.63696   0.52201   1.000
    H26     H    0.39529   0.62293   0.82774   1.000
    H27     H    0.89528   0.62293   0.82773   1.000
    H28     H    0.12140   0.49267   0.86706   1.000
    H29     H    0.62140   0.49268   0.86700   1.000
    H30     H    0.47405   0.35200   0.66024   1.000
    H31     H    0.97404   0.35200   0.66024   1.000
    H32     H    0.14594   0.74480   0.68988   1.000
    H33     H    0.64594   0.74480   0.68980   1.000
    H34     H    0.19443   0.50922   0.54948   1.000
    H35     H    0.69443   0.50922   0.54948   1.000
    H36     H    0.32982   0.13624   0.97920   1.000
    H37     H    0.82981   0.13624   0.97927   1.000
    H38     H    0.35474   0.12373   0.67340   1.000
    H39     H    0.85473   0.12373   0.67340   1.000
    H40     H    0.12851   0.99235   0.63309   1.000
    H41     H    0.62851   0.99234   0.63309   1.000
    H42     H    0.27618   0.85201   0.83973   1.000
    H43     H    0.77617   0.85201   0.83973   1.000
    H44     H    0.10376   0.24510   0.80897   1.000
    H45     H    0.60376   0.24510   0.80897   1.000
    H46     H    0.05542   0.00946   0.95055   1.000
    H47     H    0.55541   0.00946   0.95055   1.000
    H48     H    0.41953   0.13698   0.47791   1.000
    H49     H    0.91953   0.13698   0.47791   1.000
    H50     H    0.39524   0.12293   0.17222   1.000
    H51     H    0.89523   0.12293   0.17222   1.000
    C52     C    0.58062   0.99786   0.17204   1.000
    C53     C    0.13678   0.18596   0.30611   1.000
    C54     C    0.63677   0.18596   0.30611   1.000
    C55     C    0.14077   0.01260   0.44035   1.000
    H56     H    0.12134   0.99235   0.13292   1.000
    H57     H    0.62134   0.99235   0.13292   1.000
    H58     H    0.47425   0.85212   0.33970   1.000
    H59     H    0.97424   0.85212   0.33970   1.000
    H60     H    0.14596   0.24480   0.30980   1.000
    H61     H    0.64595   0.24480   0.30985   1.000
    H62     H    0.19448   0.00921   0.45053   1.000
    H63     H    0.69447   0.00920   0.45053   1.000
    H64     H    0.33139   0.63487   0.02227   1.000
    H65     H    0.83139   0.63487   0.02227   1.000
    H66     H    0.35417   0.62316   0.32789   1.000
    H67     H    0.85416   0.62316   0.32789   1.000
    H68     H    0.12859   0.49243   0.36704   1.000
    H69     H    0.62858   0.49243   0.36704   1.000
    H70     H    0.27618   0.35179   0.16020   1.000
    H71     H    0.77617   0.35179   0.16020   1.000
    H72     H    0.10397   0.74473   0.18885   1.000
    H73     H    0.60397   0.74473   0.18885   1.000
    H74     H    0.05541   0.50936   0.04950   1.000
    H75     H    0.55540   0.50936   0.04950   1.000
    H76     H    0.08047   0.36304   0.47797   1.000
    H77     H    0.58045   0.36303   0.47797   1.000
    H78     H    0.10471   0.37706   0.17225   1.000
    H79     H    0.60470   0.37706   0.17225   1.000
    H80     H    0.37859   0.50733   0.13292   1.000
    H81     H    0.87858   0.50732   0.13292   1.000
    H82     H    0.02594   0.64799   0.33974   1.000
    H83     H    0.52593   0.64799   0.33974   1.000
    O84     O    0.42403   0.83355   0.68768   1.000
    O85     O    0.92402   0.83355   0.68768   1.000
    O86     O    0.39718   0.99072   0.50634   1.000
    O87     O    0.89717   0.99072   0.50634   1.000
    O88     O    0.31424   0.85464   0.70362   1.000
    H89     H    0.35405   0.25520   0.31012   1.000
    H90     H    0.85404   0.25520   0.31012   1.000
    H91     H    0.30556   0.49078   0.45050   1.000
    H92     H    0.80555   0.49078   0.45050   1.000
    H93     H    0.17017   0.86375   0.02072   1.000
    H94     H    0.67016   0.86376   0.02070   1.000
    H95     H    0.14526   0.87626   0.32660   1.000
    H96     H    0.64525   0.87626   0.32600   1.000
    H97     H    0.37148   0.00765   0.36690   1.000
    H98     H    0.87147   0.00765   0.36690   1.000
    H99     H    0.22381   0.14798   0.16025   1.000
    H100    H    0.72380   0.14798   0.16025   1.000
    H101    H    0.39623   0.75489   0.19100   1.000
    H102    H    0.89622   0.75489   0.19102   1.000
    H103    H    0.44457   0.99054   0.04944   1.000
    H104    H    0.94457   0.99054   0.04944   1.000
    C105    C    0.05029   0.85981   0.57146   1.000
    C106    C    0.55028   0.85981   0.57146   1.000
    C107    C    0.06843   0.86531   0.78468   1.000
    C108    C    0.56842   0.86531   0.78468   1.000
    C109    C    0.01226   0.09435   0.63766   1.000
    C110    C    0.51225   0.09435   0.63766   1.000
    C111    C    0.41936   0.00213   0.82794   1.000
    C112    C    0.91936   0.00213   0.82794   1.000
    C113    C    0.36322   0.81403   0.69390   1.000
    C114    C    0.86321   0.81403   0.69300   1.000
    C115    C    0.35922   0.98739   0.55963   1.000
    C116    C    0.85921   0.98739   0.55963   1.000
    C117    C    0.19909   0.36147   0.92860   1.000
    C118    C    0.69909   0.36147   0.92860   1.000
    C119    C    0.18191   0.36518   0.71547   1.000
    C120    C    0.68190   0.36518   0.71547   1.000
    C121    C    0.23761   0.59465   0.86220   1.000
    C122    C    0.73760   0.59465   0.86220   1.000
    C123    C    0.33067   0.50204   0.67202   1.000
    C124    C    0.83066   0.50204   0.67202   1.000
    C125    C    0.38676   0.31406   0.80673   1.000
    C126    C    0.88675   0.31406   0.80673   1.000
    C127    C    0.39087   0.48732   0.94032   1.000
    C128    C    0.89086   0.48732   0.94032   1.000
    C129    C    0.44969   0.64015   0.57144   1.000
    C130    C    0.94969   0.64015   0.57144   1.000
    C131    C    0.43157   0.63468   0.78465   1.000
    C132    C    0.93157   0.63468   0.78465   1.000
    C133    C    0.48765   0.40555   0.63775   1.000
    C134    C    0.98764   0.40555   0.63775   1.000
    C135    C    0.08067   0.49801   0.82791   1.000
    C136    C    0.58066   0.49801   0.82791   1.000
    C137    C    0.13676   0.68597   0.69379   1.000
    C138    C    0.63675   0.68597   0.69379   1.000
    C139    C    0.14073   0.51261   0.55962   1.000
    C140    C    0.64072   0.51262   0.55962   1.000
    C141    C    0.29946   0.14012   0.93005   1.000
    C142    C    0.79945   0.14012   0.93005   1.000
    C143    C    0.31847   0.13494   0.71666   1.000
    C144    C    0.81846   0.13494   0.71666   1.000
    C145    C    0.26245   0.90554   0.86220   1.000
    C146    C    0.76244   0.90554   0.86220   1.000
    C147    C    0.16931   0.99789   0.67213   1.000
    C148    C    0.66930   0.99789   0.67213   1.000
    C149    C    0.11304   0.18626   0.80528   1.000
    C150    C    0.61303   0.18626   0.80528   1.000
    C151    C    0.10911   0.01284   0.94037   1.000
    C152    C    0.60911   0.01285   0.94037   1.000
    C153    C    0.44971   0.14018   0.42852   1.000
    C154    C    0.94970   0.14018   0.42852   1.000
    C155    C    0.43156   0.13468   0.21530   1.000
    C156    C    0.93155   0.13468   0.21531   1.000
    C157    C    0.48774   0.90564   0.36232   1.000
    C158    C    0.98773   0.90564   0.36232   1.000
    C159    C    0.08063   0.99786   0.17204   1.000
    O160    O    0.90509   0.47205   0.23266   1.000
    O161    O    0.47504   0.52514   0.15287   1.000
    O162    O    0.97503   0.52514   0.15287   1.000
    O163    O    0.42406   0.33355   0.31234   1.000
    O164    O    0.92406   0.33355   0.31234   1.000
    O165    O    0.39723   0.49073   0.49300   1.000
    O166    O    0.89722   0.49073   0.49370   1.000
    O167    O    0.31425   0.35462   0.29653   1.000
    C168    C    0.64076   0.01260   0.44035   1.000
    C169    C    0.30090   0.63853   0.07138   1.000
    C170    C    0.80089   0.63853   0.07138   1.000
    C171    C    0.31809   0.63481   0.28451   1.000
    C172    C    0.81808   0.63481   0.28451   1.000
    C173    C    0.26238   0.40534   0.13778   1.000
    C174    C    0.76238   0.40534   0.13778   1.000
    C175    C    0.16933   0.49795   0.32796   1.000
    C176    C    0.66932   0.49795   0.32796   1.000
    C177    C    0.11323   0.68593   0.19325   1.000
    C178    C    0.61323   0.68593   0.19325   1.000
    C179    C    0.10912   0.51268   0.05966   1.000
    C180    C    0.60911   0.51267   0.05966   1.000
    C181    C    0.05030   0.35984   0.42854   1.000
    C182    C    0.55029   0.35984   0.42855   1.000
    C183    C    0.06842   0.36531   0.21534   1.000
    C184    C    0.56841   0.36531   0.21533   1.000
    C185    C    0.01234   0.59445   0.36223   1.000
    C186    C    0.51233   0.59445   0.36223   1.000
    C187    C    0.41932   0.50198   0.17208   1.000
    C188    C    0.91932   0.50199   0.17208   1.000
    C189    C    0.36323   0.31402   0.30619   1.000
    C190    C    0.86323   0.31402   0.30600   1.000
    C191    C    0.35927   0.48738   0.44036   1.000
    C192    C    0.85926   0.48738   0.44036   1.000
    C193    C    0.20054   0.85987   0.06994   1.000
    C194    C    0.70053   0.85987   0.06994   1.000
    C195    C    0.18153   0.86505   0.28333   1.000
    C196    C    0.68152   0.86505   0.28333   1.000
    C197    C    0.23754   0.09445   0.13777   1.000
    C198    C    0.73754   0.09445   0.13777   1.000
    C199    C    0.33069   0.00210   0.32785   1.000
    C200    C    0.83068   0.00210   0.32785   1.000
    C201    C    0.38696   0.81373   0.19471   1.000
    C202    C    0.88695   0.81373   0.19471   1.000
    C203    C    0.39088   0.98715   0.05962   1.000
    C204    C    0.89087   0.98715   0.05962   1.000
    O205    O    0.01385   0.91619   0.58384   1.000
    O206    O    0.51384   0.91619   0.58384   1.000
    O207    O    0.05481   0.80402   0.60940   1.000
    O208    O    0.55480   0.80402   0.60941   1.000
    O209    O    0.04412   0.92128   0.75289   1.000
    O210    O    0.54411   0.92128   0.75289   1.000
    O211    O    0.05564   0.80014   0.77188   1.000
    O212    O    0.55563   0.80014   0.77188   1.000
    O213    O    0.01052   0.04162   0.68310   1.000
    O214    O    0.51052   0.04162   0.68310   1.000
    O215    O    0.00002   0.09015   0.57167   1.000
    O216    O    0.50001   0.09015   0.57167   1.000
    O217    O    0.40511   0.97209   0.76742   1.000
    O218    O    0.90510   0.97209   0.76742   1.000
    O219    O    0.47511   0.02528   0.84712   1.000
    O220    O    0.97510   0.02528   0.84712   1.000
    O221    O    0.81424   0.85464   0.70362   1.000
    O222    O    0.37617   0.98084   0.62629   1.000
    O223    O    0.87617   0.98084   0.62629   1.000
    O224    O    0.23609   0.41734   0.91630   1.000
    O225    O    0.73608   0.41734   0.91630   1.000
    O226    O    0.19436   0.30573   0.89065   1.000
    O227    O    0.69435   0.30573   0.89065   1.000
    O228    O    0.20596   0.42131   0.74722   1.000
    O229    O    0.70595   0.42131   0.74722   1.000
    O230    O    0.19472   0.30007   0.72861   1.000
    O231    O    0.69471   0.30007   0.72860   1.000
    O232    O    0.23955   0.54208   0.81652   1.000
    O233    O    0.73954   0.54208   0.81652   1.000
    O234    O    0.24992   0.59029   0.92816   1.000
    O235    O    0.74991   0.59029   0.92816   1.000
    O236    O    0.34495   0.47204   0.73258   1.000
    O237    O    0.84494   0.47204   0.73258   1.000
    O238    O    0.27489   0.52514   0.65200   1.000
    O239    O    0.77488   0.52514   0.65200   1.000
    O240    O    0.32593   0.33367   0.81290   1.000
    O241    O    0.82593   0.33367   0.81290   1.000
    O242    O    0.35291   0.49065   0.99362   1.000
    O243    O    0.85291   0.49064   0.99362   1.000
    O244    O    0.43569   0.35452   0.79654   1.000
    O245    O    0.93568   0.35452   0.79654   1.000
    O246    O    0.37391   0.48082   0.87367   1.000
    O247    O    0.87390   0.48082   0.87367   1.000
    O248    O    0.48614   0.58377   0.58383   1.000
    O249    O    0.98613   0.58377   0.58383   1.000
    O250    O    0.44514   0.69592   0.60940   1.000
    O251    O    0.94514   0.69592   0.60940   1.000
    O252    O    0.45586   0.57872   0.75286   1.000
    O253    O    0.95585   0.57872   0.75285   1.000
    O254    O    0.44438   0.69986   0.77188   1.000
    O255    O    0.94437   0.69986   0.77187   1.000
    O256    O    0.48942   0.45820   0.68330   1.000
    O257    O    0.98942   0.45820   0.68333   1.000
    O258    O    0.49995   0.40982   0.57179   1.000
    O259    O    0.99995   0.40982   0.57179   1.000
    O260    O    0.09490   0.52794   0.76732   1.000
    O261    O    0.59489   0.52794   0.76730   1.000
    O262    O    0.02496   0.47485   0.84711   1.000
    O263    O    0.52495   0.47486   0.84710   1.000
    O264    O    0.07593   0.66645   0.68765   1.000
    O265    O    0.57592   0.66645   0.68765   1.000
    O266    O    0.10277   0.50926   0.50629   1.000
    O267    O    0.60276   0.50926   0.50629   1.000
    O268    O    0.18575   0.64537   0.70345   1.000
    O269    O    0.68574   0.64537   0.70345   1.000
    O270    O    0.12376   0.51918   0.62620   1.000
    O271    O    0.62375   0.51917   0.62620   1.000
    O272    O    0.26378   0.08354   0.91641   1.000
    O273    O    0.76377   0.08354   0.91641   1.000
    O274    O    0.30312   0.19688   0.89347   1.000
    O275    O    0.80312   0.19688   0.89347   1.000
    O276    O    0.29392   0.07857   0.74741   1.000
    O277    O    0.79392   0.07857   0.74741   1.000
    O278    O    0.30592   0.19990   0.73073   1.000
    O279    O    0.80592   0.19990   0.73073   1.000
    O280    O    0.26053   0.95820   0.81660   1.000
    O281    O    0.76053   0.95820   0.81660   1.000
    O282    O    0.25016   0.90982   0.92818   1.000
    O283    O    0.75015   0.90982   0.92818   1.000
    O284    O    0.15507   0.02786   0.73272   1.000
    O285    O    0.65507   0.02786   0.73272   1.000
    O286    O    0.22507   0.97486   0.65284   1.000
    O287    O    0.72507   0.97486   0.65284   1.000
    O288    O    0.17376   0.16666   0.81269   1.000
    O289    O    0.67375   0.16666   0.81269   1.000
    O290    O    0.14714   0.00929   0.99363   1.000
    O291    O    0.64713   0.00929   0.99363   1.000
    O292    O    0.06424   0.14574   0.79453   1.000
    O293    O    0.56424   0.14574   0.79453   1.000
    O294    O    0.12600   0.01959   0.87373   1.000
    O295    O    0.62599   0.01959   0.87373   1.000
    O296    O    0.48615   0.08380   0.41615   1.000
    O297    O    0.98614   0.08380   0.41615   1.000
    O298    O    0.44518   0.19597   0.39057   1.000
    O299    O    0.94518   0.19597   0.39057   1.000
    O300    O    0.45587   0.07871   0.24710   1.000
    O301    O    0.95587   0.07871   0.24700   1.000
    O302    O    0.44435   0.19986   0.22810   1.000
    O303    O    0.94435   0.19986   0.22810   1.000
    O304    O    0.48947   0.95837   0.31683   1.000
    O305    O    0.98946   0.95837   0.31683   1.000
    O306    O    0.49998   0.90985   0.42831   1.000
    O307    O    0.99997   0.90985   0.42831   1.000
    O308    O    0.09489   0.02791   0.23257   1.000
    O309    O    0.59488   0.02790   0.23257   1.000
    O310    O    0.02488   0.97471   0.15280   1.000
    O311    O    0.52487   0.97471   0.15280   1.000
    O312    O    0.07596   0.16644   0.31230   1.000
    O313    O    0.57595   0.16644   0.31230   1.000
    O314    O    0.10282   0.00927   0.49364   1.000
    O315    O    0.60281   0.00927   0.49364   1.000
    O316    O    0.18575   0.14535   0.29637   1.000
    O317    O    0.68574   0.14535   0.29638   1.000
    O318    O    0.12382   0.01916   0.37369   1.000
    O319    O    0.62381   0.01915   0.37369   1.000
    O320    O    0.26391   0.58266   0.08367   1.000
    O321    O    0.76390   0.58266   0.08367   1.000
    O322    O    0.30563   0.69426   0.10933   1.000
    O323    O    0.80563   0.69426   0.10933   1.000
    O324    O    0.29404   0.57868   0.25277   1.000
    O325    O    0.79403   0.57868   0.25277   1.000
    O326    O    0.30527   0.69992   0.27138   1.000
    O327    O    0.80526   0.69992   0.27138   1.000
    O328    O    0.26045   0.45791   0.18346   1.000
    O329    O    0.76044   0.45791   0.18346   1.000
    O330    O    0.25007   0.40970   0.07182   1.000
    O331    O    0.75006   0.40970   0.07182   1.000
    O332    O    0.15505   0.52796   0.26740   1.000
    O333    O    0.65504   0.52796   0.26740   1.000
    O334    O    0.22510   0.47485   0.34719   1.000
    O335    O    0.72510   0.47486   0.34719   1.000
    O336    O    0.17406   0.66632   0.18704   1.000
    O337    O    0.67405   0.66632   0.18704   1.000
    O338    O    0.14708   0.50935   0.00637   1.000
    O339    O    0.64707   0.50935   0.00637   1.000
    O340    O    0.06430   0.64548   0.20345   1.000
    O341    O    0.56430   0.64548   0.20340   1.000
    O342    O    0.12609   0.51917   0.12631   1.000
    O343    O    0.62608   0.51918   0.12631   1.000
    O344    O    0.01385   0.41622   0.41615   1.000
    O345    O    0.51385   0.41622   0.41615   1.000
    O346    O    0.05485   0.30407   0.39058   1.000
    O347    O    0.55484   0.30407   0.39058   1.000
    O348    O    0.04413   0.42127   0.24713   1.000
    O349    O    0.54413   0.42127   0.24713   1.000
    O350    O    0.05561   0.30013   0.22811   1.000
    O351    O    0.55561   0.30013   0.22811   1.000
    O352    O    0.01057   0.54179   0.31665   1.000
    O353    O    0.51056   0.54179   0.31665   1.000
    O354    O    0.00004   0.59017   0.42819   1.000
    O355    O    0.50003   0.59017   0.42819   1.000
    O356    O    0.40510   0.47206   0.23266   1.000
    O357    O    0.81424   0.35462   0.29653   1.000
    O358    O    0.37623   0.48082   0.37374   1.000
    O359    O    0.87623   0.48082   0.37374   1.000
    O360    O    0.23621   0.91646   0.08358   1.000
    O361    O    0.73620   0.91646   0.08358   1.000
    O362    O    0.19687   0.80311   0.10652   1.000
    O363    O    0.69686   0.80311   0.10652   1.000
    O364    O    0.20607   0.92142   0.25258   1.000
    O365    O    0.70606   0.92142   0.25258   1.000
    O366    O    0.19407   0.80009   0.26925   1.000
    O367    O    0.69406   0.80009   0.26925   1.000
    O368    O    0.23946   0.04179   0.18332   1.000
    O369    O    0.73945   0.04179   0.18332   1.000
    O370    O    0.24984   0.09017   0.07180   1.000
    O371    O    0.74983   0.09017   0.07180   1.000
    O372    O    0.34492   0.97213   0.26727   1.000
    O373    O    0.84491   0.97213   0.26727   1.000
    O374    O    0.27492   0.02513   0.34714   1.000
    O375    O    0.77491   0.02513   0.34714   1.000
    O376    O    0.32623   0.83333   0.18729   1.000
    O377    O    0.82622   0.83333   0.18729   1.000
    O378    O    0.35286   0.99070   0.00630   1.000
    O379    O    0.85285   0.99070   0.00630   1.000
    O380    O    0.43575   0.85425   0.20545   1.000
    O381    O    0.93575   0.85425   0.20540   1.000
    O382    O    0.37399   0.98040   0.12626   1.000
    O383    O    0.87399   0.98040   0.12626   1.000
loop_
    _geom_bond_atom_site_label_1
    _geom_bond_atom_site_label_2
    _geom_bond_distance
    _geom_bond_site_symmetry_2
    _ccdc_geom_bond_type
    O379   C204      1.25465      .   S
    O378   C203      1.25466      .   S
    O339   C180      1.25371      .   S
    O338   C179      1.25373      .   S
    H94    C194      1.10294      .   S
    H93    C193      1.10263      .   S
    H64    C169      1.10261      .   S
    H65    C170      1.10257      .   S
    H103   C203      1.10576      .   S
    H104   C204      1.10576      .   S
    H75    C180      1.10581      .   S
    H74    C179      1.10580      .   S
    C203   O382      1.28827      .   S
    C204   O383      1.28828      .   S
    C180   O343      1.28819      .   S
    C179   O342      1.28819      .   S
    C193   O360      1.29379      .   S
    C193   O362      1.24861      .   S
    C194   O361      1.29378      .   S
    C194   O363      1.24863      .   S
    C169   O320      1.29389      .   S
    C169   O322      1.24839      .   S
    C170   O321      1.29390      .   S
    C170   O323      1.24840      .   S
    O370   C197      1.25087      .   S
    O371   C198      1.25086      .   S
    O330   C173      1.25067      .   S
    O331   C174      1.25067      .   S
    H56    C159      1.10313      .   S
    H57    C52       1.10315      .   S
    H81    C188      1.10315      .   S
    H80    C187      1.10322      .   S
    C198   H100      1.10597      .   S
    C198   O369      1.28670      .   S
    C197   H99       1.10596      .   S
    C197   O368      1.28670      .   S
    C174   H71       1.10604      .   S
    C174   O329      1.28720      .   S
    C173   H70       1.10604      .   S
    C173   O328      1.28720      .   S
    O310   C159      1.25886      .   S
    O311   C52       1.25889      .   S
    O162   C188      1.25835      .   S
    O161   C187      1.25836      .   S
    C52    O309      1.28427  1_565   S
    C159   O308      1.28430  1_565   S
    C188   O160      1.28428      .   S
    C187   O356      1.28423      .   S
    H50    C155      1.10735      .   S
    H51    C156      1.10743      .   S
    H79    C184      1.10726      .   S
    H78    C183      1.10729      .   S
    O337   C178      1.28879      .   S
    O336   C177      1.28879      .   S
    O377   C202      1.28884      .   S
    O376   C201      1.28884      .   S
    H72    C177      1.10208      .   S
    H73    C178      1.10210      .   S
    H101   C201      1.10205      .   S
    H102   C202      1.10205      .   S
    C177   O340      1.25489      .   S
    C178   O341      1.25475      .   S
    C201   O380      1.25495      .   S
    C202   O381      1.25479      .   S
    C155   O302      1.25118      .   S
    C155   O300      1.28522      .   S
    C156   O303      1.25117      .   S
    C156   O301      1.28432      .   S
    C184   O351      1.25133      .   S
    C184   O349      1.28512      .   S
    C183   O350      1.25130      .   S
    C183   O348      1.28509      .   S
    O364   C195      1.28517      .   S
    O365   C196      1.28518      .   S
    O324   C171      1.28583      .   S
    O325   C172      1.28588      .   S
    O373   C200      1.28434  1_565   S
    O372   C199      1.28433  1_565   S
    O332   C175      1.28433      .   S
    O333   C176      1.28434      .   S
    O366   C195      1.25066      .   S
    O367   C196      1.25067      .   S
    O326   C171      1.25080      .   S
    O327   C172      1.25080      .   S
    C196   H96       1.09929      .   S
    C195   H95       1.10731      .   S
    C171   H66       1.10749      .   S
    C172   H67       1.10743      .   S
    O316   C53       1.25498      .   S
    O317   C54       1.25494      .   S
    O357   C190      1.25431      .   S
    O167   C189      1.25482      .   S
    C190   H90       1.10227      .   S
    C190   O164      1.28919      .   S
    C54    H61       1.10200      .   S
    C54    O313      1.28874      .   S
    C53    H60       1.10194      .   S
    C53    O312      1.28874      .   S
    C189   H89       1.10204      .   S
    C189   O163      1.28885      .   S
    O353   C186      1.28700      .   S
    O352   C185      1.28699      .   S
    O305   C158      1.28699      .   S
    O304   C157      1.28698      .   S
    C200   O375      1.25829      .   S
    C200   H98       1.10321      .   S
    C199   O374      1.25830      .   S
    C199   H97       1.10321      .   S
    C176   O335      1.25828      .   S
    C176   H69       1.10315      .   S
    C175   O334      1.25828      .   S
    C175   H68       1.10317      .   S
    H59    C158      1.10594      .   S
    H58    C157      1.10592      .   S
    H82    C185      1.10602      .   S
    H83    C186      1.10601      .   S
    C186   O355      1.25074      .   S
    C185   O354      1.25075      .   S
    C158   O307      1.25077      .   S
    C157   O306      1.25077      .   S
    O318   C55       1.28835      .   S
    O319   C168      1.28834      .   S
    O358   C191      1.28796      .   S
    O359   C192      1.28796      .   S
    O298   C153      1.24876      .   S
    O299   C154      1.24876      .   S
    O347   C182      1.24878      .   S
    O346   C181      1.24870      .   S
    O297   C154      1.29410      .   S
    O345   C182      1.29418      .   S
    O344   C181      1.29416      .   S
    O296   C153      1.29410      .   S
    C153   H48       1.10282      .   S
    C154   H49       1.10280      .   S
    C181   H76       1.10289      .   S
    C182   H77       1.10273      .   S
    C55    H62       1.10578      .   S
    C55    O314      1.25374      .   S
    C168   H63       1.10581      .   S
    C168   O315      1.25375      .   S
    C191   H91       1.10576      .   S
    C191   O165      1.24383      .   S
    C192   H92       1.10576      .   S
    C192   O166      1.25403      .   S
    O267   C140      1.25388      .   S
    O266   C139      1.25389      .   S
    O86    C115      1.25376      .   S
    O87    C116      1.25377      .   S
    H24    C129      1.10288      .   S
    H25    C130      1.10288      .   S
    H1     C106      1.10284      .   S
    H0     C105      1.10271      .   S
    H10    C115      1.10595      .   S
    H11    C116      1.10595      .   S
    H35    C140      1.10578      .   S
    H34    C139      1.10575      .   S
    C139   O270      1.28726      .   S
    C140   O271      1.28725      .   S
    C115   O222      1.28834      .   S
    C116   O223      1.28834      .   S
    C130   O249      1.29416      .   S
    C130   O251      1.24869      .   S
    C129   O248      1.29415      .   S
    C129   O250      1.24871      .   S
    C106   O206      1.29414      .   S
    C106   O208      1.24875      .   S
    C105   O205      1.29415      .   S
    C105   O207      1.24866      .   S
    O216   C110      1.25077      .   S
    O215   C109      1.25077      .   S
    O258   C133      1.25075      .   S
    O259   C134      1.25074      .   S
    H17    C124      1.10319      .   S
    H16    C123      1.10319      .   S
    H40    C147      1.10310      .   S
    H41    C148      1.10309      .   S
    C109   H6        1.10586      .   S
    C109   O213      1.28637      .   S
    C110   H7        1.10585      .   S
    C110   O214      1.28638      .   S
    C134   H31       1.10603      .   S
    C134   O257      1.28699      .   S
    C133   H30       1.10602      .   S
    C133   O256      1.28662      .   S
    O239   C124      1.26250      .   S
    O238   C123      1.26249      .   S
    O286   C147      1.25827      .   S
    O287   C148      1.25829      .   S
    C124   O237      1.28434      .   S
    C123   O236      1.28435      .   S
    H15    C120      1.10736      .   S
    H14    C119      1.10737      .   S
    C147   O284      1.28450  1_565   S
    C148   O285      1.28449  1_565   S
    H38    C143      1.10725      .   S
    H39    C144      1.10723      .   S
    O265   C138      1.28884      .   S
    O264   C137      1.28886      .   S
    O85    C114      1.28737      .   S
    O84    C113      1.28876      .   S
    H33    C138      1.10213      .   S
    H32    C137      1.10202      .   S
    H9     C114      1.10107      .   S
    H8     C113      1.10199      .   S
    C114   O221      1.25746      .   S
    C138   O269      1.25483      .   S
    C137   O268      1.25482      .   S
    C113   O88       1.25494      .   S
    C120   O231      1.25080      .   S
    C120   O229      1.28596      .   S
    C119   O230      1.25082      .   S
    C119   O228      1.28595      .   S
    C144   O279      1.25062      .   S
    C144   O277      1.28520      .   S
    C143   O278      1.25062      .   S
    C143   O276      1.28520      .   S
    O253   C132      1.28511      .   S
    O252   C131      1.28508      .   S
    O210   C108      1.28516      .   S
    O209   C107      1.28513      .   S
    O261   C136      1.28474      .   S
    O260   C135      1.28439      .   S
    O217   C111      1.28415  1_565   S
    O218   C112      1.28414  1_565   S
    O255   C132      1.25132      .   S
    O211   C107      1.25118      .   S
    O212   C108      1.25119      .   S
    O254   C131      1.25130      .   S
    C132   H27       1.10729      .   S
    C131   H26       1.10728      .   S
    C108   H3        1.10738      .   S
    C107   H2        1.10731      .   S
    O292   C149      1.25498      .   S
    O293   C150      1.25496      .   S
    O245   C126      1.25486      .   S
    O244   C125      1.25486      .   S
    C150   H45       1.10203      .   S
    C150   O289      1.28884      .   S
    C149   H44       1.10203      .   S
    C149   O288      1.28884      .   S
    C125   H20       1.10210      .   S
    C125   O240      1.28873      .   S
    C126   H21       1.10210      .   S
    C126   O241      1.28873      .   S
    O233   C122      1.28718      .   S
    O232   C121      1.28718      .   S
    O280   C145      1.28734      .   S
    O281   C146      1.28734      .   S
    C135   O262      1.25833      .   S
    C135   H28       1.10306      .   S
    C136   O263      1.25824      .   S
    C136   H29       1.10230      .   S
    C112   O220      1.25855      .   S
    C112   H5        1.10315      .   S
    C111   O219      1.25855      .   S
    C111   H4        1.10313      .   S
    H42    C145      1.10586      .   S
    H43    C146      1.10587      .   S
    H19    C122      1.10605      .   S
    H18    C121      1.10605      .   S
    C122   O235      1.25067      .   S
    C146   O283      1.25104      .   S
    C145   O282      1.25105      .   S
    C121   O234      1.25068      .   S
    O246   C127      1.28819      .   S
    O247   C128      1.28819      .   S
    O295   C152      1.28826      .   S
    O294   C151      1.28827      .   S
    O226   C117      1.24840      .   S
    O227   C118      1.24841      .   S
    O275   C142      1.24863      .   S
    O274   C141      1.24864      .   S
    O224   C117      1.29394      .   S
    O225   C118      1.29393      .   S
    O272   C141      1.29379      .   S
    O273   C142      1.29380      .   S
    C118   H13       1.10263      .   S
    C117   H12       1.10262      .   S
    C142   H37       1.10254      .   S
    C141   H36       1.10148      .   S
    C128   H23       1.10580      .   S
    C128   O243      1.25386      .   S
    C127   H22       1.10582      .   S
    C127   O242      1.25387      .   S
    C151   H46       1.10576      .   S
    C151   O290      1.25378      .   S
    C152   H47       1.10576      .   S
    C152   O291      1.25378      .   S
