# CIF file generated by openbabel 2.4.90, see http://openbabel.sf.net
data_I
_chemical_name_common ''
_cell_length_a 20.255
_cell_length_b 18.421
_cell_length_c 18.542
_cell_angle_alpha 89.999
_cell_angle_beta 90.023
_cell_angle_gamma 89.947
_space_group_name_H-M_alt 'P 1'
_space_group_name_Hall 'P 1'
loop_
    _symmetry_equiv_pos_as_xyz
    x,y,z
loop_
    _atom_site_label
    _atom_site_type_symbol
    _atom_site_fract_x
    _atom_site_fract_y
    _atom_site_fract_z
    _atom_site_occupancy
    N0      N    0.93177   0.63405   0.78427   1.000
    N1      N    0.89056   0.48735   0.93952   1.000
    N2      N    0.38610   0.31438   0.80683   1.000
    N3      N    0.88609   0.31438   0.80683   1.000
    N4      N    0.39057   0.48735   0.93952   1.000
    N5      N    0.48777   0.40639   0.63827   1.000
    N6      N    0.98776   0.40639   0.63828   1.000
    N7      N    0.08048   0.49837   0.82735   1.000
    N8      N    0.95012   0.63920   0.57167   1.000
    N9      N    0.43178   0.63405   0.78428   1.000
    N10     N    0.76226   0.40619   0.13831   1.000
    N11     N    0.11389   0.68561   0.19315   1.000
    N12     N    0.83047   0.50170   0.67239   1.000
    N13     N    0.85951   0.98743   0.56041   1.000
    N14     N    0.70094   0.86080   0.07018   1.000
    N15     N    0.20095   0.86080   0.07019   1.000
    N16     N    0.30046   0.63758   0.07166   1.000
    N17     N    0.80045   0.63758   0.07166   1.000
    N18     N    0.39058   0.98720   0.06041   1.000
    N19     N    0.14042   0.51257   0.56040   1.000
    N20     N    0.64041   0.51257   0.56040   1.000
    N21     N    0.29904   0.13920   0.92978   1.000
    N22     N    0.54986   0.36079   0.42831   1.000
    N23     N    0.06822   0.36594   0.21571   1.000
    N24     N    0.73765   0.09360   0.13828   1.000
    N25     N    0.23766   0.09360   0.13828   1.000
    N26     N    0.26227   0.40619   0.13831   1.000
    N27     N    0.08043   0.99821   0.17258   1.000
    N28     N    0.76232   0.90639   0.86168   1.000
    N29     N    0.11370   0.18594   0.80537   1.000
    N30     N    0.10942   0.01280   0.93957   1.000
    N31     N    0.60941   0.01280   0.93957   1.000
    N32     N    0.45014   0.13923   0.42829   1.000
    N33     N    0.04985   0.86076   0.57169   1.000
    N34     N    0.63609   0.68565   0.69367   1.000
    N35     N    0.95014   0.13924   0.42829   1.000
    N36     N    0.43176   0.13404   0.21568   1.000
    N37     N    0.93175   0.13404   0.21566   1.000
    N38     N    0.45013   0.63920   0.57167   1.000
    N39     N    0.16952   0.49830   0.32740   1.000
    N40     N    0.66951   0.49830   0.32740   1.000
    N41     N    0.61389   0.68561   0.19314   1.000
    N42     N    0.38629   0.81405   0.19461   1.000
    N43     N    0.88629   0.81405   0.19461   1.000
    N44     N    0.73771   0.59381   0.86167   1.000
    N45     N    0.33048   0.50170   0.67239   1.000
    N46     N    0.33050   0.00175   0.32729   1.000
    N47     N    0.83050   0.00175   0.32729   1.000
    N48     N    0.69953   0.36242   0.92832   1.000
    N49     N    0.18210   0.36585   0.71585   1.000
    N50     N    0.68209   0.36585   0.71585   1.000
    N51     N    0.58047   0.49837   0.82733   1.000
    N52     N    0.13610   0.68565   0.69369   1.000
    N53     N    0.16949   0.99824   0.67270   1.000
    N54     N    0.66948   0.99824   0.67270   1.000
    N55     N    0.19953   0.36242   0.92832   1.000
    N56     N    0.98785   0.90649   0.36179   1.000
    N57     N    0.48786   0.90649   0.36179   1.000
    N58     N    0.06823   0.86595   0.78430   1.000
    N59     N    0.10942   0.51264   0.06046   1.000
    N60     N    0.04987   0.36079   0.42831   1.000
    N61     N    0.56821   0.36594   0.21571   1.000
    N62     N    0.26233   0.90639   0.86168   1.000
    N63     N    0.61369   0.18594   0.80537   1.000
    N64     N    0.54984   0.86076   0.57169   1.000
    N65     N    0.35952   0.98743   0.56041   1.000
    N66     N    0.56823   0.86595   0.78431   1.000
    N67     N    0.41956   0.00179   0.82738   1.000
    N68     N    0.51221   0.59360   0.36170   1.000
    N69     N    0.36390   0.31435   0.30630   1.000
    N70     N    0.58043   0.99821   0.17258   1.000
    N71     N    0.18173   0.86571   0.28294   1.000
    N72     N    0.68172   0.86571   0.28279   1.000
    N73     N    0.31789   0.63414   0.28414   1.000
    N74     N    0.91951   0.50162   0.17263   1.000
    N75     N    0.01222   0.59360   0.36170   1.000
    N76     N    0.13611   0.18564   0.30615   1.000
    N77     N    0.23772   0.59381   0.86167   1.000
    N78     N    0.60942   0.51264   0.06046   1.000
    N79     N    0.79904   0.13920   0.92980   1.000
    N80     N    0.31826   0.13428   0.71705   1.000
    N81     N    0.81826   0.13428   0.71705   1.000
    N82     N    0.91955   0.00179   0.82738   1.000
    N83     N    0.01213   0.09350   0.63818   1.000
    N84     N    0.81788   0.63414   0.28414   1.000
    N85     N    0.41951   0.50163   0.17263   1.000
    N86     N    0.63610   0.18564   0.30616   1.000
    N87     N    0.14047   0.01256   0.43955   1.000
    N88     N    0.51213   0.09350   0.63818   1.000
    N89     N    0.86389   0.31435   0.30625   1.000
    N90     N    0.35957   0.48743   0.43940   1.000
    N91     N    0.85957   0.48743   0.43957   1.000
    N92     N    0.64046   0.01256   0.43955   1.000
    N93     N    0.36388   0.81435   0.69385   1.000
    N94     N    0.86388   0.81435   0.69362   1.000
    N95     N    0.89057   0.98720   0.06041   1.000
    Zr96    Zr   0.74999   0.50000   0.00000   1.000
    O97     O    0.79800   0.49567   0.98408   1.000
    O98     O    0.74691   0.53473   0.95644   1.000
    O99     O    0.73564   0.45527   0.97162   1.000
    O100    O    0.75307   0.46526   0.04356   1.000
    O101    O    0.70198   0.50433   0.01591   1.000
    O102    O    0.76434   0.54472   0.02837   1.000
    Zr103   Zr   0.25000   0.50000   0.99999   1.000
    O104    O    0.25307   0.46526   0.04355   1.000
    O105    O    0.23564   0.45527   0.97161   1.000
    O106    O    0.20199   0.50433   0.01591   1.000
    O107    O    0.24692   0.53474   0.95643   1.000
    O108    O    0.29800   0.49567   0.98408   1.000
    O109    O    0.26435   0.54472   0.02837   1.000
    Zr110   Zr   0.94130   0.96568   0.21555   1.000
    O111    O    0.94073   0.02190   0.21951   1.000
    O112    O    0.98653   0.97494   0.19696   1.000
    O113    O    0.95896   0.94997   0.26477   1.000
    O114    O    0.90155   0.97551   0.24995   1.000
    O115    O    0.92685   0.91385   0.20904   1.000
    O116    O    0.92020   0.97290   0.16560   1.000
    Zr117   Zr   0.44131   0.96568   0.21555   1.000
    O118    O    0.48653   0.97494   0.19696   1.000
    O119    O    0.42021   0.97290   0.16560   1.000
    O120    O    0.45897   0.94997   0.26477   1.000
    O121    O    0.42686   0.91385   0.20905   1.000
    O122    O    0.40156   0.97551   0.24995   1.000
    O123    O    0.44074   0.02190   0.21953   1.000
    Zr124   Zr   0.25000   0.00000   0.00000   1.000
    O125    O    0.23601   0.95476   0.02800   1.000
    O126    O    0.20199   0.00436   0.98410   1.000
    O127    O    0.24689   0.03467   0.04355   1.000
    O128    O    0.29800   0.99564   0.01589   1.000
    O129    O    0.26398   0.04524   0.97200   1.000
    O130    O    0.25310   0.96533   0.95644   1.000
    Zr131   Zr   0.46416   0.93762   0.67814   1.000
    O132    O    0.42700   0.95548   0.64223   1.000
    O133    O    0.49179   0.91573   0.63974   1.000
    O134    O    0.48195   0.98959   0.66877   1.000
    O135    O    0.44563   0.95797   0.72661   1.000
    O136    O    0.43408   0.89380   0.68326   1.000
    O137    O    0.50017   0.91766   0.71402   1.000
    Zr138   Zr   0.28591   0.93759   0.17813   1.000
    O139    O    0.31605   0.89367   0.18340   1.000
    O140    O    0.26804   0.98962   0.16882   1.000
    O141    O    0.24989   0.91760   0.21364   1.000
    O142    O    0.32309   0.95534   0.14222   1.000
    O143    O    0.25846   0.91575   0.13933   1.000
    O144    O    0.30443   0.95795   0.22656   1.000
    Zr145   Zr   0.55871   0.53427   0.21547   1.000
    O146    O    0.59845   0.52449   0.24994   1.000
    O147    O    0.55926   0.47806   0.21949   1.000
    O148    O    0.51345   0.52497   0.19694   1.000
    O149    O    0.57320   0.58600   0.20838   1.000
    O150    O    0.54107   0.55004   0.26468   1.000
    O151    O    0.57981   0.52697   0.16557   1.000
    Zr152   Zr   0.71412   0.56218   0.17821   1.000
    O153    O    0.74193   0.58359   0.13976   1.000
    O154    O    0.69558   0.54193   0.22666   1.000
    O155    O    0.75005   0.58224   0.21401   1.000
    O156    O    0.73195   0.51015   0.16889   1.000
    O157    O    0.68405   0.60606   0.18305   1.000
    O158    O    0.67694   0.54442   0.14229   1.000
    Zr159   Zr   0.99999   0.74997   0.69027   1.000
    O160    O    0.95646   0.77651   0.69078   1.000
    O161    O    0.02400   0.78524   0.72398   1.000
    O162    O    0.01931   0.78442   0.65052   1.000
    O163    O    0.97598   0.71473   0.72397   1.000
    O164    O    0.04351   0.72345   0.69080   1.000
    O165    O    0.98066   0.71552   0.65051   1.000
    Zr166   Zr   0.80872   0.46577   0.28455   1.000
    O167    O    0.84846   0.47552   0.25008   1.000
    O168    O    0.79107   0.44989   0.23536   1.000
    O169    O    0.82987   0.47306   0.33446   1.000
    O170    O    0.76346   0.47504   0.30309   1.000
    O171    O    0.82320   0.41402   0.29147   1.000
    O172    O    0.80917   0.52198   0.28047   1.000
    Zr173   Zr   0.30872   0.46577   0.28455   1.000
    O174    O    0.29108   0.44989   0.23536   1.000
    O175    O    0.26347   0.47504   0.30309   1.000
    O176    O    0.30918   0.52198   0.28047   1.000
    O177    O    0.34847   0.47552   0.25008   1.000
    O178    O    0.32988   0.47306   0.33441   1.000
    O179    O    0.32321   0.41402   0.29148   1.000
    Zr180   Zr   0.03583   0.06237   0.32184   1.000
    O181    O    0.05436   0.04202   0.27337   1.000
    O182    O    0.99982   0.08233   0.28594   1.000
    O183    O    0.07299   0.04451   0.35775   1.000
    O184    O    0.06592   0.10619   0.31672   1.000
    O185    O    0.01804   0.01040   0.33120   1.000
    O186    O    0.00820   0.08426   0.36024   1.000
    Zr187   Zr   0.74999   0.00000   0.00000   1.000
    O188    O    0.75309   0.96533   0.95644   1.000
    O189    O    0.73600   0.95476   0.02799   1.000
    O190    O    0.79799   0.99564   0.01589   1.000
    O191    O    0.74689   0.03467   0.04355   1.000
    O192    O    0.76397   0.04524   0.97200   1.000
    O193    O    0.70199   0.00436   0.98410   1.000
    Zr194   Zr   0.53582   0.06237   0.32184   1.000
    O195    O    0.56591   0.10619   0.31673   1.000
    O196    O    0.49981   0.08233   0.28596   1.000
    O197    O    0.55436   0.04202   0.27337   1.000
    O198    O    0.57298   0.04451   0.35775   1.000
    O199    O    0.50819   0.08426   0.36024   1.000
    O200    O    0.51804   0.01040   0.33120   1.000
    Zr201   Zr   0.00000   0.50000   0.49999   1.000
    O202    O    0.99693   0.46532   0.54354   1.000
    O203    O    0.00306   0.53467   0.45644   1.000
    O204    O    0.98580   0.54527   0.52839   1.000
    O205    O    0.04795   0.50430   0.51588   1.000
    O206    O    0.95204   0.49570   0.48410   1.000
    O207    O    0.01420   0.45472   0.47159   1.000
    Zr208   Zr   0.25023   0.74978   0.18808   1.000
    O209    O    0.22608   0.78505   0.22194   1.000
    O210    O    0.23124   0.78420   0.14841   1.000
    O211    O    0.20662   0.72330   0.18922   1.000
    O212    O    0.26971   0.71479   0.14913   1.000
    O213    O    0.27402   0.71464   0.22251   1.000
    O214    O    0.29374   0.77629   0.18961   1.000
    Zr215   Zr   0.75022   0.74978   0.18808   1.000
    O216    O    0.79374   0.77629   0.18961   1.000
    O217    O    0.73123   0.78420   0.14841   1.000
    O218    O    0.77402   0.71464   0.22251   1.000
    O219    O    0.72608   0.78505   0.22190   1.000
    O220    O    0.70661   0.72330   0.18921   1.000
    O221    O    0.76970   0.71479   0.14913   1.000
    Zr222   Zr   0.44128   0.46572   0.78452   1.000
    O223    O    0.44073   0.52193   0.78050   1.000
    O224    O    0.48654   0.47503   0.80304   1.000
    O225    O    0.42018   0.47302   0.83441   1.000
    O226    O    0.40154   0.47551   0.74999   1.000
    O227    O    0.45892   0.44995   0.73530   1.000
    O228    O    0.42679   0.41399   0.79160   1.000
    Zr229   Zr   0.49999   0.74997   0.69027   1.000
    O230    O    0.48067   0.71552   0.65051   1.000
    O231    O    0.47599   0.71473   0.72397   1.000
    O232    O    0.45647   0.77651   0.69084   1.000
    O233    O    0.51931   0.78442   0.65052   1.000
    O234    O    0.54351   0.72345   0.69079   1.000
    O235    O    0.52401   0.78524   0.72398   1.000
    Zr236   Zr   0.30873   0.96576   0.71542   1.000
    O237    O    0.26346   0.97502   0.69692   1.000
    O238    O    0.34848   0.97555   0.74991   1.000
    O239    O    0.32986   0.97306   0.66553   1.000
    O240    O    0.30926   0.02199   0.71983   1.000
    O241    O    0.29110   0.94997   0.76463   1.000
    O242    O    0.32321   0.91402   0.70855   1.000
    Zr243   Zr   0.00000   0.25002   0.30972   1.000
    O244    O    0.95648   0.27654   0.30918   1.000
    O245    O    0.04352   0.22348   0.30915   1.000
    O246    O    0.01932   0.28447   0.34947   1.000
    O247    O    0.97598   0.21476   0.27600   1.000
    O248    O    0.02401   0.28526   0.27602   1.000
    O249    O    0.98068   0.21557   0.34947   1.000
    Zr250   Zr   0.19127   0.03424   0.28456   1.000
    O251    O    0.20889   0.05002   0.23534   1.000
    O252    O    0.19073   0.97800   0.28016   1.000
    O253    O    0.17679   0.08598   0.29143   1.000
    O254    O    0.17014   0.02693   0.33445   1.000
    O255    O    0.23653   0.02498   0.30306   1.000
    O256    O    0.15151   0.02444   0.25007   1.000
    Zr257   Zr   1.00000   0.00000   0.49999   1.000
    O258    O    0.01419   0.95471   0.52840   1.000
    O259    O    0.99696   0.96535   0.45648   1.000
    O260    O    0.98580   0.04528   0.47158   1.000
    O261    O    0.04797   0.00430   0.48409   1.000
    O262    O    0.00303   0.03464   0.54350   1.000
    O263    O    0.95202   0.99570   0.51589   1.000
    Zr264   Zr   0.96415   0.93762   0.67814   1.000
    O265    O    0.92700   0.95548   0.64223   1.000
    O266    O    0.99179   0.91573   0.63974   1.000
    O267    O    0.93407   0.89380   0.68320   1.000
    O268    O    0.94562   0.95797   0.72661   1.000
    O269    O    0.00017   0.91766   0.71402   1.000
    O270    O    0.98195   0.98959   0.66877   1.000
    Zr271   Zr   0.49999   0.25002   0.30972   1.000
    O272    O    0.48068   0.21557   0.34947   1.000
    O273    O    0.52400   0.28526   0.27601   1.000
    O274    O    0.45648   0.27654   0.30919   1.000
    O275    O    0.54352   0.22348   0.30915   1.000
    O276    O    0.47598   0.21476   0.27601   1.000
    O277    O    0.51932   0.28447   0.34948   1.000
    Zr278   Zr   0.05869   0.03431   0.78443   1.000
    O279    O    0.09844   0.02449   0.75003   1.000
    O280    O    0.07313   0.08615   0.79093   1.000
    O281    O    0.07978   0.02709   0.83438   1.000
    O282    O    0.01345   0.02505   0.80300   1.000
    O283    O    0.04103   0.05002   0.73520   1.000
    O284    O    0.05925   0.97809   0.78046   1.000
    Zr285   Zr   0.69126   0.53422   0.71543   1.000
    O286    O    0.67011   0.52693   0.66552   1.000
    O287    O    0.67678   0.58597   0.70849   1.000
    O288    O    0.69080   0.47802   0.71951   1.000
    O289    O    0.65152   0.52448   0.74989   1.000
    O290    O    0.73652   0.52496   0.69674   1.000
    O291    O    0.70891   0.55010   0.76462   1.000
    Zr292   Zr   0.94127   0.46572   0.78452   1.000
    O293    O    0.98654   0.47503   0.80305   1.000
    O294    O    0.90153   0.47551   0.74999   1.000
    O295    O    0.92017   0.47302   0.83441   1.000
    O296    O    0.94072   0.52193   0.78050   1.000
    O297    O    0.95891   0.44995   0.73531   1.000
    O298    O    0.92678   0.41399   0.79160   1.000
    Zr299   Zr   0.21413   0.56218   0.17821   1.000
    O300    O    0.18406   0.60606   0.18305   1.000
    O301    O    0.19559   0.54193   0.22666   1.000
    O302    O    0.23196   0.51015   0.16889   1.000
    O303    O    0.17695   0.54442   0.14229   1.000
    O304    O    0.25006   0.58224   0.21401   1.000
    O305    O    0.24193   0.58359   0.13976   1.000
    Zr306   Zr   0.53580   0.56233   0.67810   1.000
    O307    O    0.49980   0.58231   0.71399   1.000
    O308    O    0.57295   0.54449   0.64219   1.000
    O309    O    0.50818   0.58423   0.63971   1.000
    O310    O    0.55436   0.54204   0.72656   1.000
    O311    O    0.56589   0.60617   0.68319   1.000
    O312    O    0.51800   0.51033   0.66879   1.000
    Zr313   Zr   0.46419   0.43767   0.32182   1.000
    O314    O    0.42704   0.45550   0.35770   1.000
    O315    O    0.48199   0.48966   0.33114   1.000
    O316    O    0.50018   0.41768   0.28596   1.000
    O317    O    0.44563   0.45795   0.27338   1.000
    O318    O    0.49181   0.41577   0.36023   1.000
    O319    O    0.43410   0.39382   0.31675   1.000
    Zr320   Zr   0.78590   0.93759   0.17813   1.000
    O321    O    0.80443   0.95795   0.22656   1.000
    O322    O    0.75845   0.91575   0.13933   1.000
    O323    O    0.74988   0.91760   0.21360   1.000
    O324    O    0.76803   0.98962   0.16882   1.000
    O325    O    0.82308   0.95534   0.14222   1.000
    O326    O    0.81604   0.89367   0.18339   1.000
    Zr327   Zr   0.28586   0.43781   0.82177   1.000
    O328    O    0.25806   0.41640   0.86022   1.000
    O329    O    0.24993   0.41776   0.78597   1.000
    O330    O    0.32305   0.45557   0.85770   1.000
    O331    O    0.31593   0.39394   0.81693   1.000
    O332    O    0.26804   0.48984   0.83109   1.000
    O333    O    0.30440   0.45806   0.77328   1.000
    Zr334   Zr   0.05871   0.53427   0.21547   1.000
    O335    O    0.07321   0.58600   0.20839   1.000
    O336    O    0.07981   0.52697   0.16557   1.000
    O337    O    0.01345   0.52496   0.19694   1.000
    O338    O    0.09846   0.52449   0.24994   1.000
    O339    O    0.05927   0.47806   0.21949   1.000
    O340    O    0.04107   0.55004   0.26468   1.000
    Zr341   Zr   0.21408   0.06240   0.82180   1.000
    O342    O    0.24154   0.08424   0.86062   1.000
    O343    O    0.23195   0.01037   0.83112   1.000
    O344    O    0.25011   0.08239   0.78631   1.000
    O345    O    0.18395   0.10632   0.81655   1.000
    O346    O    0.19556   0.04204   0.77339   1.000
    O347    O    0.17691   0.04465   0.85773   1.000
    Zr348   Zr   0.71408   0.06240   0.82180   1.000
    O349    O    0.69555   0.04204   0.77339   1.000
    O350    O    0.74153   0.08424   0.86063   1.000
    O351    O    0.73194   0.01037   0.83112   1.000
    O352    O    0.75010   0.08239   0.78631   1.000
    O353    O    0.68394   0.10632   0.81655   1.000
    O354    O    0.67690   0.04465   0.85773   1.000
    Zr355   Zr   0.69126   0.03424   0.28456   1.000
    O356    O    0.70888   0.05002   0.23534   1.000
    O357    O    0.69073   0.97800   0.28012   1.000
    O358    O    0.67013   0.02693   0.33445   1.000
    O359    O    0.67678   0.08598   0.29144   1.000
    O360    O    0.65150   0.02444   0.25007   1.000
    O361    O    0.73652   0.02498   0.30306   1.000
    Zr362   Zr   0.78586   0.43781   0.82177   1.000
    O363    O    0.81593   0.39394   0.81693   1.000
    O364    O    0.74993   0.41776   0.78597   1.000
    O365    O    0.76803   0.48984   0.83109   1.000
    O366    O    0.82304   0.45557   0.85770   1.000
    O367    O    0.80440   0.45806   0.77328   1.000
    O368    O    0.75805   0.41640   0.86022   1.000
    Zr369   Zr   0.49999   0.00000   0.49999   1.000
    O370    O    0.48580   0.04528   0.47158   1.000
    O371    O    0.51419   0.95471   0.52840   1.000
    O372    O    0.50303   0.03464   0.54350   1.000
    O373    O    0.49696   0.96535   0.45648   1.000
    O374    O    0.45202   0.99570   0.51589   1.000
    O375    O    0.54796   0.00430   0.48409   1.000
    Zr376   Zr   0.19127   0.53422   0.71543   1.000
    O377    O    0.17012   0.52693   0.66552   1.000
    O378    O    0.20892   0.55010   0.76462   1.000
    O379    O    0.17679   0.58597   0.70850   1.000
    O380    O    0.15153   0.52447   0.74990   1.000
    O381    O    0.19081   0.47802   0.71951   1.000
    O382    O    0.23652   0.52496   0.69674   1.000
    Zr383   Zr   0.55868   0.03431   0.78443   1.000
    O384    O    0.51345   0.02505   0.80300   1.000
    O385    O    0.57313   0.08615   0.79093   1.000
    O386    O    0.57978   0.02709   0.83438   1.000
    O387    O    0.55924   0.97809   0.78046   1.000
    O388    O    0.59843   0.02449   0.75003   1.000
    O389    O    0.54102   0.05002   0.73520   1.000
    Zr390   Zr   0.49999   0.50000   0.49999   1.000
    O391    O    0.48579   0.54527   0.52839   1.000
    O392    O    0.49693   0.46532   0.54353   1.000
    O393    O    0.50305   0.53467   0.45644   1.000
    O394    O    0.45204   0.49570   0.48397   1.000
    O395    O    0.54794   0.50430   0.51588   1.000
    O396    O    0.51419   0.45472   0.47159   1.000
    Zr397   Zr   0.80872   0.96576   0.71542   1.000
    O398    O    0.84847   0.97556   0.74991   1.000
    O399    O    0.82985   0.97306   0.66553   1.000
    O400    O    0.76345   0.97502   0.69692   1.000
    O401    O    0.82320   0.91402   0.70849   1.000
    O402    O    0.80925   0.02199   0.71983   1.000
    O403    O    0.79110   0.94997   0.76463   1.000
    Zr404   Zr   0.03581   0.56233   0.67810   1.000
    O405    O    0.06590   0.60617   0.68319   1.000
    O406    O    0.99980   0.58231   0.71399   1.000
    O407    O    0.01800   0.51033   0.66880   1.000
    O408    O    0.05436   0.54204   0.72657   1.000
    O409    O    0.00818   0.58423   0.63971   1.000
    O410    O    0.07296   0.54449   0.64219   1.000
    Zr411   Zr   0.96418   0.43767   0.32182   1.000
    O412    O    0.92703   0.45550   0.35775   1.000
    O413    O    0.00018   0.41769   0.28596   1.000
    O414    O    0.94562   0.45795   0.27338   1.000
    O415    O    0.98199   0.48967   0.33114   1.000
    O416    O    0.99181   0.41577   0.36023   1.000
    O417    O    0.93409   0.39382   0.31674   1.000
    Zr418   Zr   0.74976   0.25022   0.81190   1.000
    O419    O    0.79337   0.27669   0.81076   1.000
    O420    O    0.73028   0.28521   0.85085   1.000
    O421    O    0.72596   0.28536   0.77747   1.000
    O422    O    0.77390   0.21494   0.77804   1.000
    O423    O    0.76875   0.21579   0.85157   1.000
    O424    O    0.70624   0.22370   0.81037   1.000
    Zr425   Zr   0.24977   0.25022   0.81190   1.000
    O426    O    0.26876   0.21579   0.85157   1.000
    O427    O    0.22597   0.28536   0.77748   1.000
    O428    O    0.29337   0.27669   0.81076   1.000
    O429    O    0.27391   0.21494   0.77804   1.000
    O430    O    0.23028   0.28521   0.85085   1.000
    O431    O    0.20625   0.22370   0.81037   1.000
loop_
    _geom_bond_atom_site_label_1
    _geom_bond_atom_site_label_2
    _geom_bond_distance
    _geom_bond_site_symmetry_2
    _ccdc_geom_bond_type
    Zr96   O97       1.01935  1_554   S
    N1     O97       2.05475      .   S
    Zr96   O98       1.03235  1_554   S
    N44    O98       2.07509      .   S
    Zr96   O99       1.02013  1_554   S
    N48    O99       2.02655      .   S
    Zr96   O100      1.03223      .   S
    N10    O100      2.07487      .   S
    Zr96   O101      1.01934      .   S
    N78    O101      2.05469      .   S
    Zr96   O102      1.02007      .   S
    N17    O102      2.02650      .   S
    Zr103  O104      1.03229  1_556   S
    N26    O104      2.07498      .   S
    Zr103  O105      1.02010      .   S
    N55    O105      2.02652      .   S
    Zr103  O106      1.01934  1_556   S
    N59    O106      2.05472      .   S
    Zr103  O107      1.03228      .   S
    N77    O107      2.07498      .   S
    Zr103  O108      1.01934      .   S
    N4     O108      2.05473      .   S
    Zr103  O109      1.02010  1_556   S
    N16    O109      2.02654      .   S
    Zr110  O111      1.03826  1_565   S
    N37    O111      2.07482      .   S
    Zr110  O112      0.99384      .   S
    N27    O112      2.00196  1_455   S
    Zr110  O113      1.02182      .   S
    N56    O113      2.05386      .   S
    Zr110  O114      1.04307      .   S
    N47    O114      2.08855  1_545   S
    Zr110  O115      1.00622      .   S
    N43    O115      2.03196      .   S
    Zr110  O116      1.02839      .   S
    N95    O116      2.05747      .   S
    Zr117  O118      0.99374      .   S
    N70    O118      2.00179      .   S
    Zr117  O119      1.02839      .   S
    N18    O119      2.05747      .   S
    Zr117  O120      1.02182      .   S
    N57    O120      2.05386      .   S
    Zr117  O121      1.00620      .   S
    N42    O121      2.03196      .   S
    Zr117  O122      1.04307      .   S
    N46    O122      2.08855  1_545   S
    Zr117  O123      1.03828  1_565   S
    N36    O123      2.07482      .   S
    Zr124  O125      1.02217  1_545   S
    N15    O125      2.02852      .   S
    Zr124  O126      1.01900  1_554   S
    N30    O126      2.05430      .   S
    Zr124  O127      1.03141      .   S
    N25    O127      2.07341      .   S
    Zr124  O128      1.01893  1_545   S
    N18    O128      2.05424      .   S
    Zr124  O129      1.02221  1_554   S
    N21    O129      2.02860      .   S
    Zr124  O130      1.03161  1_544   S
    N62    O130      2.07386      .   S
    Zr131  O132      1.05697      .   S
    N65    O132      2.12433      .   S
    Zr131  O133      0.99133      .   S
    N64    O133      1.99973      .   S
    Zr131  O134      1.03783      .   S
    N88    O134      2.08842  1_545   S
    Zr131  O135      1.04364      .   S
    N67    O135      2.10279  1_545   S
    Zr131  O136      1.01642      .   S
    N93    O136      2.05077      .   S
    Zr131  O137      1.05312      .   S
    N66    O137      2.12176      .   S
    Zr138  O139      1.01767      .   S
    N42    O139      2.05302      .   S
    Zr138  O140      1.03857      .   S
    N25    O140      2.08939  1_545   S
    Zr138  O141      1.04997      .   S
    N71    O141      2.11527      .   S
    Zr138  O142      1.05750      .   S
    N18    O142      2.12536      .   S
    Zr138  O143      0.99440      .   S
    N15    O143      2.00649      .   S
    Zr138  O144      1.04302      .   S
    N46    O144      2.10195  1_545   S
    Zr145  O146      1.04324      .   S
    N40    O146      2.08901      .   S
    Zr145  O147      1.03809      .   S
    N61    O147      2.07431      .   S
    Zr145  O148      0.99390      .   S
    N85    O148      2.00226      .   S
    Zr145  O149      1.00614      .   S
    N41    O149      2.03191      .   S
    Zr145  O150      1.02206      .   S
    N68    O150      2.05476      .   S
    Zr145  O151      1.02806      .   S
    N78    O151      2.05638      .   S
    Zr152  O153      0.99086      .   S
    N17    O153      1.99791      .   S
    Zr152  O154      1.04287      .   S
    N40    O154      2.10139      .   S
    Zr152  O155      1.05207      .   S
    N84    O155      2.11986      .   S
    Zr152  O156      1.03842      .   S
    N10    O156      2.08908      .   S
    Zr152  O157      1.01552      .   S
    N41    O157      2.04915      .   S
    Zr152  O158      1.05736      .   S
    N78    O158      2.12486      .   S
    Zr159  O160      1.00772      .   S
    N94    O160      2.00082      .   S
    Zr159  O161      1.02456  1_655   S
    N58    O161      2.06543      .   S
    Zr159  O162      1.04878  1_655   S
    N33    O162      2.12096      .   S
    Zr159  O163      1.02432      .   S
    N0     O163      2.06498      .   S
    Zr159  O164      1.00748  1_655   S
    N52    O164      2.00059      .   S
    Zr159  O165      1.04860      .   S
    N8     O165      2.12068      .   S
    Zr166  O167      1.04372      .   S
    N74    O167      2.08981      .   S
    Zr166  O168      1.02241      .   S
    N10    O168      2.05577      .   S
    Zr166  O169      1.02841      .   S
    N91    O169      2.05677      .   S
    Zr166  O170      0.99375      .   S
    N40    O170      2.00186      .   S
    Zr166  O171      1.00533      .   S
    N89    O171      2.03040      .   S
    Zr166  O172      1.03821      .   S
    N84    O172      2.07503      .   S
    Zr173  O174      1.02241      .   S
    N26    O174      2.05577      .   S
    Zr173  O175      0.99375      .   S
    N39    O175      2.00186      .   S
    Zr173  O176      1.03821      .   S
    N73    O176      2.07503      .   S
    Zr173  O177      1.04372      .   S
    N85    O177      2.08981      .   S
    Zr173  O178      1.02769      .   S
    N90    O178      2.05447      .   S
    Zr173  O179      1.00536      .   S
    N69    O179      2.03049      .   S
    Zr180  O181      1.04367      .   S
    N27    O181      2.10297  1_565   S
    Zr180  O182      1.05338  1_455   S
    N37    O182      2.12192      .   S
    Zr180  O183      1.05692      .   S
    N87    O183      2.12420      .   S
    Zr180  O184      1.01641      .   S
    N76    O184      2.05075      .   S
    Zr180  O185      1.03784      .   S
    N56    O185      2.08845  1_665   S
    Zr180  O186      0.99141      .   S
    N35    O186      1.99984  1_655   S
    Zr187  O188      1.03161  1_544   S
    N28    O188      2.07386      .   S
    Zr187  O189      1.02216  1_545   S
    N14    O189      2.02849      .   S
    Zr187  O190      1.01893  1_545   S
    N95    O190      2.05423      .   S
    Zr187  O191      1.03141      .   S
    N24    O191      2.07342      .   S
    Zr187  O192      1.02217  1_554   S
    N79    O192      2.02850      .   S
    Zr187  O193      1.01901  1_554   S
    N31    O193      2.05431      .   S
    Zr194  O195      1.01640      .   S
    N86    O195      2.05073      .   S
    Zr194  O196      1.05310      .   S
    N36    O196      2.12176      .   S
    Zr194  O197      1.04367      .   S
    N70    O197      2.10297  1_565   S
    Zr194  O198      1.05692      .   S
    N92    O198      2.12420      .   S
    Zr194  O199      0.99136      .   S
    N32    O199      1.99975      .   S
    Zr194  O200      1.03779      .   S
    N57    O200      2.08839  1_565   S
    Zr201  O202      1.03143  1_455   S
    N6     O202      2.07351      .   S
    Zr201  O203      1.03143      .   S
    N75    O203      2.07350      .   S
    Zr201  O204      1.02728  1_455   S
    N8     O204      2.03923      .   S
    Zr201  O205      1.01800      .   S
    N19    O205      2.05230      .   S
    Zr201  O206      1.01810  1_455   S
    N91    O206      2.05251      .   S
    Zr201  O207      1.02724      .   S
    N60    O207      2.03915      .   S
    Zr208  O209      1.02722      .   S
    N71    O209      2.07178      .   S
    Zr208  O210      1.04418      .   S
    N15    O210      2.11394      .   S
    Zr208  O211      1.00951      .   S
    N11    O211      2.00440      .   S
    Zr208  O212      1.04522      .   S
    N16    O212      2.11500      .   S
    Zr208  O213      1.02859      .   S
    N73    O213      2.07139      .   S
    Zr208  O214      1.00850      .   S
    N42    O214      2.00221      .   S
    Zr215  O216      1.00850      .   S
    N43    O216      2.00220      .   S
    Zr215  O217      1.04419      .   S
    N14    O217      2.11399      .   S
    Zr215  O218      1.02859      .   S
    N84    O218      2.07139      .   S
    Zr215  O219      1.02679      .   S
    N72    O219      2.07065      .   S
    Zr215  O220      1.00951      .   S
    N41    O220      2.00440      .   S
    Zr215  O221      1.04522      .   S
    N17    O221      2.11500      .   S
    Zr222  O223      1.03809      .   S
    N9     O223      2.07430      .   S
    Zr222  O224      0.99383      .   S
    N51    O224      2.00218      .   S
    Zr222  O225      1.02801      .   S
    N4     O225      2.05631      .   S
    Zr222  O226      1.04385      .   S
    N45    O226      2.09098      .   S
    Zr222  O227      1.02221      .   S
    N5     O227      2.05487      .   S
    Zr222  O228      1.00610      .   S
    N2     O228      2.03186      .   S
    Zr229  O230      1.04861      .   S
    N38    O230      2.12070      .   S
    Zr229  O231      1.02435      .   S
    N9     O231      2.06501      .   S
    Zr229  O232      1.00773      .   S
    N93    O232      2.00090      .   S
    Zr229  O233      1.04871      .   S
    N64    O233      2.12090      .   S
    Zr229  O234      1.00739      .   S
    N34    O234      2.00042      .   S
    Zr229  O235      1.02451      .   S
    N66    O235      2.06537      .   S
    Zr236  O237      0.99342      .   S
    N53    O237      2.00133      .   S
    Zr236  O238      1.04396      .   S
    N67    O238      2.09029  1_545   S
    Zr236  O239      1.02835      .   S
    N65    O239      2.05692      .   S
    Zr236  O240      1.03916  1_565   S
    N80    O240      2.07742      .   S
    Zr236  O241      1.02228      .   S
    N62    O241      2.05515      .   S
    Zr236  O242      1.00507      .   S
    N93    O242      2.03005      .   S
    Zr243  O244      1.00749  1_455   S
    N89    O244      2.00062      .   S
    Zr243  O245      1.00774      .   S
    N76    O245      2.00092      .   S
    Zr243  O246      1.04857      .   S
    N60    O246      2.12064      .   S
    Zr243  O247      1.02466  1_455   S
    N37    O247      2.06566      .   S
    Zr243  O248      1.02435      .   S
    N23    O248      2.06501      .   S
    Zr243  O249      1.04869  1_455   S
    N35    O249      2.12088      .   S
    Zr250  O251      1.02248      .   S
    N25    O251      2.05524      .   S
    Zr250  O252      1.03916  1_545   S
    N71    O252      2.07743      .   S
    Zr250  O253      1.00506      .   S
    N76    O253      2.03004      .   S
    Zr250  O254      1.02831      .   S
    N87    O254      2.05676      .   S
    Zr250  O255      0.99343      .   S
    N46    O255      2.00135      .   S
    Zr250  O256      1.04398      .   S
    N27    O256      2.09042  1_565   S
    Zr257  O258      1.02735  1_645   S
    N33    O258      2.03932      .   S
    Zr257  O259      1.03055  1_545   S
    N56    O259      2.07183      .   S
    Zr257  O260      1.02732      .   S
    N35    O260      2.03929      .   S
    Zr257  O261      1.01866  1_655   S
    N87    O261      2.05360      .   S
    Zr257  O262      1.03045  1_655   S
    N83    O262      2.07158      .   S
    Zr257  O263      1.01874  1_545   S
    N13    O263      2.05370      .   S
    Zr264  O265      1.05697      .   S
    N13    O265      2.12433      .   S
    Zr264  O266      0.99139      .   S
    N33    O266      1.99984  1_455   S
    Zr264  O267      1.01632      .   S
    N94    O267      2.05046      .   S
    Zr264  O268      1.04365      .   S
    N82    O268      2.10280  1_545   S
    Zr264  O269      1.05319  1_655   S
    N58    O269      2.12186      .   S
    Zr264  O270      1.03787      .   S
    N83    O270      2.08848  1_445   S
    Zr271  O272      1.04867      .   S
    N32    O272      2.12085      .   S
    Zr271  O273      1.02437      .   S
    N61    O273      2.06504      .   S
    Zr271  O274      1.00740      .   S
    N69    O274      2.00045      .   S
    Zr271  O275      1.00774      .   S
    N86    O275      2.00091      .   S
    Zr271  O276      1.02455      .   S
    N36    O276      2.06540      .   S
    Zr271  O277      1.04857      .   S
    N22    O277      2.12064      .   S
    Zr278  O279      1.04304      .   S
    N53    O279      2.08851  1_565   S
    Zr278  O280      1.00621      .   S
    N29    O280      2.03198      .   S
    Zr278  O281      1.02838      .   S
    N30    O281      2.05737      .   S
    Zr278  O282      0.99378      .   S
    N82    O282      2.00196  1_655   S
    Zr278  O283      1.02199      .   S
    N83    O283      2.05395      .   S
    Zr278  O284      1.03827  1_545   S
    N58    O284      2.07480      .   S
    Zr285  O286      1.02853      .   S
    N20    O286      2.05678      .   S
    Zr285  O287      1.00537      .   S
    N34    O287      2.03052      .   S
    Zr285  O288      1.03821      .   S
    N50    O288      2.07503      .   S
    Zr285  O289      1.04363      .   S
    N51    O289      2.08964      .   S
    Zr285  O290      0.99471      .   S
    N12    O290      2.00208      .   S
    Zr285  O291      1.02241      .   S
    N44    O291      2.05576      .   S
    Zr292  O293      0.99397      .   S
    N7     O293      2.00241  1_455   S
    Zr292  O294      1.04385      .   S
    N12    O294      2.09098      .   S
    Zr292  O295      1.02801      .   S
    N1     O295      2.05631      .   S
    Zr292  O296      1.03810      .   S
    N0     O296      2.07431      .   S
    Zr292  O297      1.02211      .   S
    N6     O297      2.05484      .   S
    Zr292  O298      1.00610      .   S
    N3     O298      2.03186      .   S
    Zr299  O300      1.01553      .   S
    N11    O300      2.04917      .   S
    Zr299  O301      1.04287      .   S
    N39    O301      2.10139      .   S
    Zr299  O302      1.03842      .   S
    N26    O302      2.08908      .   S
    Zr299  O303      1.05736      .   S
    N59    O303      2.12487      .   S
    Zr299  O304      1.05207      .   S
    N73    O304      2.11987      .   S
    Zr299  O305      0.99086      .   S
    N16    O305      1.99791      .   S
    Zr306  O307      1.05352      .   S
    N9     O307      2.12246      .   S
    Zr306  O308      1.05708      .   S
    N20    O308      2.12446      .   S
    Zr306  O309      0.99089      .   S
    N38    O309      1.99904      .   S
    Zr306  O310      1.04290      .   S
    N51    O310      2.10157      .   S
    Zr306  O311      1.01660      .   S
    N34    O311      2.05099      .   S
    Zr306  O312      1.03826      .   S
    N5     O312      2.08870      .   S
    Zr313  O314      1.05676      .   S
    N90    O314      2.12322      .   S
    Zr313  O315      1.03831      .   S
    N68    O315      2.08888      .   S
    Zr313  O316      1.05323      .   S
    N61    O316      2.12200      .   S
    Zr313  O317      1.04267      .   S
    N85    O317      2.10118      .   S
    Zr313  O318      0.99118      .   S
    N22    O318      1.99948      .   S
    Zr313  O319      1.01656      .   S
    N69    O319      2.05094      .   S
    Zr320  O321      1.04302      .   S
    N47    O321      2.10195  1_545   S
    Zr320  O322      0.99442      .   S
    N14    O322      2.00653      .   S
    Zr320  O323      1.04953      .   S
    N72    O323      2.11401      .   S
    Zr320  O324      1.03857      .   S
    N24    O324      2.08939  1_545   S
    Zr320  O325      1.05750      .   S
    N95    O325      2.12536      .   S
    Zr320  O326      1.01766      .   S
    N43    O326      2.05301      .   S
    Zr327  O328      0.99083      .   S
    N55    O328      1.99790      .   S
    Zr327  O329      1.05204      .   S
    N49    O329      2.11983      .   S
    Zr327  O330      1.05737      .   S
    N4     O330      2.12490      .   S
    Zr327  O331      1.01553      .   S
    N2     O331      2.04916      .   S
    Zr327  O332      1.03843      .   S
    N77    O332      2.08910      .   S
    Zr327  O333      1.04366      .   S
    N45    O333      2.10384      .   S
    Zr334  O335      1.00612      .   S
    N11    O335      2.03191      .   S
    Zr334  O336      1.02806      .   S
    N59    O336      2.05638      .   S
    Zr334  O337      0.99399      .   S
    N74    O337      2.00243  1_655   S
    Zr334  O338      1.04324      .   S
    N39    O338      2.08901      .   S
    Zr334  O339      1.03809      .   S
    N23    O339      2.07430      .   S
    Zr334  O340      1.02206      .   S
    N75    O340      2.05476      .   S
    Zr341  O342      0.99464      .   S
    N21    O342      2.00676      .   S
    Zr341  O343      1.03858      .   S
    N62    O343      2.08951  1_565   S
    Zr341  O344      1.04971      .   S
    N80    O344      2.11487      .   S
    Zr341  O345      1.01763      .   S
    N29    O345      2.05297      .   S
    Zr341  O346      1.04269      .   S
    N53    O346      2.10140  1_565   S
    Zr341  O347      1.05773      .   S
    N30    O347      2.12571      .   S
    Zr348  O349      1.04269      .   S
    N54    O349      2.10140  1_565   S
    Zr348  O350      0.99469      .   S
    N79    O350      2.00691      .   S
    Zr348  O351      1.03858      .   S
    N28    O351      2.08951  1_565   S
    Zr348  O352      1.04971      .   S
    N81    O352      2.11487      .   S
    Zr348  O353      1.01763      .   S
    N63    O353      2.05296      .   S
    Zr348  O354      1.05773      .   S
    N31    O354      2.12571      .   S
    Zr355  O356      1.02247      .   S
    N24    O356      2.05523      .   S
    Zr355  O357      1.03922  1_545   S
    N72    O357      2.07738      .   S
    Zr355  O358      1.02831      .   S
    N92    O358      2.05676      .   S
    Zr355  O359      1.00507      .   S
    N86    O359      2.03005      .   S
    Zr355  O360      1.04398      .   S
    N70    O360      2.09042  1_565   S
    Zr355  O361      0.99343      .   S
    N47    O361      2.00135      .   S
    Zr362  O363      1.01553      .   S
    N3     O363      2.04916      .   S
    Zr362  O364      1.05205      .   S
    N50    O364      2.11986      .   S
    Zr362  O365      1.03843      .   S
    N44    O365      2.08910      .   S
    Zr362  O366      1.05737      .   S
    N1     O366      2.12490      .   S
    Zr362  O367      1.04366      .   S
    N12    O367      2.10384      .   S
    Zr362  O368      0.99083      .   S
    N48    O368      1.99790      .   S
    Zr369  O370      1.02728      .   S
    N32    O370      2.03921      .   S
    Zr369  O371      1.02736  1_545   S
    N64    O371      2.03933      .   S
    Zr369  O372      1.03045      .   S
    N88    O372      2.07158      .   S
    Zr369  O373      1.03054  1_545   S
    N57    O373      2.07182      .   S
    Zr369  O374      1.01864  1_545   S
    N65    O374      2.05354      .   S
    Zr369  O375      1.01865      .   S
    N92    O375      2.05360      .   S
    Zr376  O377      1.02853      .   S
    N19    O377      2.05678      .   S
    Zr376  O378      1.02241      .   S
    N77    O378      2.05577      .   S
    Zr376  O379      1.00536      .   S
    N52    O379      2.03049      .   S
    Zr376  O380      1.04373      .   S
    N7     O380      2.08983      .   S
    Zr376  O381      1.03821      .   S
    N49    O381      2.07503      .   S
    Zr376  O382      0.99470      .   S
    N45    O382      2.00206      .   S
    Zr383  O384      0.99368      .   S
    N67    O384      2.00178      .   S
    Zr383  O385      1.00620      .   S
    N63    O385      2.03197      .   S
    Zr383  O386      1.02838      .   S
    N31    O386      2.05737      .   S
    Zr383  O387      1.03828  1_545   S
    N66    O387      2.07482      .   S
    Zr383  O388      1.04304      .   S
    N54    O388      2.08852  1_565   S
    Zr383  O389      1.02199      .   S
    N88    O389      2.05395      .   S
    Zr390  O391      1.02724      .   S
    N38    O391      2.03916      .   S
    Zr390  O392      1.03140      .   S
    N5     O392      2.07341      .   S
    Zr390  O393      1.03143      .   S
    N68    O393      2.07350      .   S
    Zr390  O394      1.01870      .   S
    N90    O394      2.05267      .   S
    Zr390  O395      1.01800      .   S
    N20    O395      2.05230      .   S
    Zr390  O396      1.02724      .   S
    N22    O396      2.03914      .   S
    Zr397  O398      1.04396      .   S
    N82    O398      2.09029  1_545   S
    Zr397  O399      1.02835      .   S
    N13    O399      2.05692      .   S
    Zr397  O400      0.99342      .   S
    N54    O400      2.00133      .   S
    Zr397  O401      1.00520      .   S
    N94    O401      2.03047      .   S
    Zr397  O402      1.03916  1_565   S
    N81    O402      2.07742      .   S
    Zr397  O403      1.02228      .   S
    N28    O403      2.05516      .   S
    Zr404  O405      1.01661      .   S
    N52    O405      2.05102      .   S
    Zr404  O406      1.05357  1_455   S
    N0     O406      2.12254      .   S
    Zr404  O407      1.03828      .   S
    N6     O407      2.08874  1_655   S
    Zr404  O408      1.04304      .   S
    N7     O408      2.10182      .   S
    Zr404  O409      0.99094      .   S
    N8     O409      1.99914  1_655   S
    Zr404  O410      1.05708      .   S
    N19    O410      2.12446      .   S
    Zr411  O412      1.05727      .   S
    N91    O412      2.12495      .   S
    Zr411  O413      1.05329  1_655   S
    N23    O413      2.12209      .   S
    Zr411  O414      1.04266      .   S
    N74    O414      2.10116      .   S
    Zr411  O415      1.03834      .   S
    N75    O415      2.08892  1_455   S
    Zr411  O416      0.99124      .   S
    N60    O416      1.99958  1_455   S
    Zr411  O417      1.01658      .   S
    N89    O417      2.05100      .   S
    Zr418  O419      1.00952      .   S
    N3     O419      2.00441      .   S
    Zr418  O420      1.04523      .   S
    N48    O420      2.11503      .   S
    Zr418  O421      1.02858      .   S
    N50    O421      2.07137      .   S
    Zr418  O422      1.02720      .   S
    N81    O422      2.07172      .   S
    Zr418  O423      1.04421      .   S
    N79    O423      2.11398      .   S
    Zr418  O424      1.00850      .   S
    N63    O424      2.00221      .   S
    Zr425  O426      1.04415      .   S
    N21    O426      2.11382      .   S
    Zr425  O427      1.02856      .   S
    N49    O427      2.07136      .   S
    Zr425  O428      1.00952      .   S
    N2     O428      2.00441      .   S
    Zr425  O429      1.02720      .   S
    N80    O429      2.07172      .   S
    Zr425  O430      1.04523      .   S
    N55    O430      2.11502      .   S
    Zr425  O431      1.00850      .   S
    N29    O431      2.00222      .   S
