# CIF file generated by openbabel 2.4.90, see http://openbabel.sf.net
data_I
_chemical_name_common ''
_cell_length_a 20.255
_cell_length_b 18.421
_cell_length_c 18.542
_cell_angle_alpha 89.999
_cell_angle_beta 90.023
_cell_angle_gamma 89.947
_space_group_name_H-M_alt 'P 1'
_space_group_name_Hall 'P 1'
loop_
    _symmetry_equiv_pos_as_xyz
    x,y,z
loop_
    _atom_site_label
    _atom_site_type_symbol
    _atom_site_fract_x
    _atom_site_fract_y
    _atom_site_fract_z
    _atom_site_occupancy
    Zr0     Zr   0.46416   0.93762   0.67814   1.000
    Zr1     Zr   0.96415   0.93762   0.67814   1.000
    Zr2     Zr   0.05869   0.03431   0.78443   1.000
    Zr3     Zr   0.55868   0.03431   0.78443   1.000
    Zr4     Zr   0.28586   0.43781   0.82177   1.000
    Zr5     Zr   0.78586   0.43781   0.82177   1.000
    Zr6     Zr   0.19127   0.53422   0.71543   1.000
    Zr7     Zr   0.69126   0.53422   0.71543   1.000
    Zr8     Zr   0.03581   0.56233   0.67810   1.000
    Zr9     Zr   0.53580   0.56233   0.67810   1.000
    Zr10    Zr   0.44128   0.46572   0.78452   1.000
    Zr11    Zr   0.94127   0.46572   0.78452   1.000
    Zr12    Zr   0.21408   0.06240   0.82180   1.000
    Zr13    Zr   0.71408   0.06240   0.82180   1.000
    Zr14    Zr   0.30873   0.96576   0.71542   1.000
    Zr15    Zr   0.80872   0.96576   0.71542   1.000
    Zr16    Zr   0.03583   0.06237   0.32184   1.000
    Zr17    Zr   0.53582   0.06237   0.32184   1.000
    Zr18    Zr   0.44131   0.96568   0.21555   1.000
    Zr19    Zr   0.94130   0.96568   0.21555   1.000
    Zr20    Zr   0.21413   0.56218   0.17821   1.000
    Zr21    Zr   0.71412   0.56218   0.17821   1.000
    Zr22    Zr   0.30872   0.46577   0.28455   1.000
    Zr23    Zr   0.80872   0.46577   0.28455   1.000
    Zr24    Zr   0.46419   0.43767   0.32182   1.000
    Zr25    Zr   0.96418   0.43767   0.32182   1.000
    Zr26    Zr   0.05871   0.53427   0.21547   1.000
    Zr27    Zr   0.55871   0.53427   0.21547   1.000
    Zr28    Zr   0.28591   0.93759   0.17813   1.000
    Zr29    Zr   0.78590   0.93759   0.17813   1.000
    Zr30    Zr   0.19127   0.03424   0.28456   1.000
    Zr31    Zr   0.69126   0.03424   0.28456   1.000
    Zr32    Zr   0.99999   0.74997   0.69027   1.000
    Zr33    Zr   0.49999   0.74997   0.69027   1.000
    Zr34    Zr   0.24977   0.25022   0.81190   1.000
    Zr35    Zr   0.74976   0.25022   0.81190   1.000
    Zr36    Zr   0.00000   0.25002   0.30972   1.000
    Zr37    Zr   0.49999   0.25002   0.30972   1.000
    Zr38    Zr   0.25023   0.74978   0.18808   1.000
    Zr39    Zr   0.75022   0.74978   0.18808   1.000
    Zr40    Zr   1.00000   0.00000   0.49999   1.000
    Zr41    Zr   0.49999   0.00000   0.49999   1.000
    Zr42    Zr   0.25000   0.50000   0.99999   1.000
    Zr43    Zr   0.74999   0.50000   0.00000   1.000
    Zr44    Zr   0.00000   0.50000   0.49999   1.000
    Zr45    Zr   0.49999   0.50000   0.49999   1.000
    Zr46    Zr   0.25000   0.00000   0.00000   1.000
    Zr47    Zr   0.74999   0.00000   0.00000   1.000
    N48     N    0.93177   0.63405   0.78427   1.000
    O49     O    0.96380   0.60229   0.74988   1.000
    O50     O    0.94017   0.57814   0.77648   1.000
    O51     O    0.95197   0.67948   0.75767   1.000
    N52     N    0.89056   0.48735   0.93952   1.000
    O53     O    0.84600   0.49134   0.96817   1.000
    O54     O    0.89907   0.48031   0.88431   1.000
    O55     O    0.86022   0.47333   0.89362   1.000
    N56     N    0.38610   0.31438   0.80683   1.000
    O57     O    0.41229   0.36225   0.79868   1.000
    O58     O    0.34600   0.35006   0.81208   1.000
    O59     O    0.33698   0.30316   0.80961   1.000
    N60     N    0.88609   0.31438   0.80683   1.000
    O61     O    0.91229   0.36225   0.79868   1.000
    O62     O    0.84599   0.35006   0.81208   1.000
    O63     O    0.83697   0.30316   0.80961   1.000
    N64     N    0.39057   0.48735   0.93952   1.000
    O65     O    0.39908   0.48031   0.88431   1.000
    O66     O    0.36023   0.47333   0.89362   1.000
    O67     O    0.34601   0.49134   0.96816   1.000
    N68     N    0.48777   0.40639   0.63827   1.000
    O69     O    0.47656   0.43418   0.68609   1.000
    O70     O    0.50019   0.45833   0.65948   1.000
    O71     O    0.49387   0.43065   0.58708   1.000
    N72     N    0.98776   0.40639   0.63828   1.000
    O73     O    0.97655   0.43418   0.68610   1.000
    O74     O    0.00019   0.45833   0.65950   1.000
    O75     O    0.99387   0.43065   0.58708   1.000
    N76     N    0.08048   0.49837   0.82735   1.000
    O77     O    0.07292   0.52175   0.77503   1.000
    O78     O    0.11178   0.51472   0.78436   1.000
    O79     O    0.03180   0.48433   0.82158   1.000
    N80     N    0.95012   0.63920   0.57167   1.000
    O81     O    0.96134   0.68108   0.61075   1.000
    O82     O    0.98055   0.60613   0.60132   1.000
    O83     O    0.97159   0.59054   0.55679   1.000
    N84     N    0.43178   0.63405   0.78428   1.000
    O85     O    0.46380   0.60229   0.74988   1.000
    O86     O    0.44017   0.57814   0.77649   1.000
    O87     O    0.45198   0.67948   0.75768   1.000
    N88     N    0.76226   0.40619   0.13831   1.000
    O89     O    0.77342   0.43401   0.18616   1.000
    O90     O    0.74977   0.45812   0.15957   1.000
    O91     O    0.75615   0.43052   0.08711   1.000
    N92     N    0.11389   0.68561   0.19315   1.000
    O93     O    0.08770   0.63774   0.20130   1.000
    O94     O    0.15399   0.64993   0.18789   1.000
    O95     O    0.16302   0.69683   0.19035   1.000
    N96     N    0.83047   0.50170   0.67239   1.000
    O97     O    0.82293   0.47831   0.72478   1.000
    O98     O    0.86179   0.48529   0.71547   1.000
    O99     O    0.78177   0.51569   0.67805   1.000
    N100    N    0.85951   0.98743   0.56041   1.000
    O101    O    0.85098   0.98037   0.61563   1.000
    O102    O    0.88984   0.97333   0.60631   1.000
    O103    O    0.90405   0.99140   0.53179   1.000
    N104    N    0.70094   0.86080   0.07018   1.000
    O105    O    0.73100   0.89391   0.10052   1.000
    O106    O    0.72202   0.90951   0.05599   1.000
    O107    O    0.71224   0.81862   0.10874   1.000
    N108    N    0.20095   0.86080   0.07019   1.000
    O109    O    0.23100   0.89391   0.10052   1.000
    O110    O    0.22203   0.90951   0.05599   1.000
    O111    O    0.21225   0.81862   0.10874   1.000
    N112    N    0.30046   0.63758   0.07166   1.000
    O113    O    0.26974   0.60500   0.10130   1.000
    O114    O    0.27870   0.58945   0.05675   1.000
    O115    O    0.28919   0.67980   0.11018   1.000
    N116    N    0.80045   0.63758   0.07166   1.000
    O117    O    0.78919   0.67980   0.11018   1.000
    O118    O    0.76973   0.60500   0.10130   1.000
    O119    O    0.77870   0.58945   0.05675   1.000
    N120    N    0.39058   0.98720   0.06041   1.000
    O121    O    0.34600   0.99127   0.03178   1.000
    O122    O    0.36026   0.97310   0.10630   1.000
    O123    O    0.39911   0.98012   0.11565   1.000
    N124    N    0.14042   0.51257   0.56040   1.000
    O125    O    0.09590   0.50860   0.53177   1.000
    O126    O    0.14897   0.51963   0.61561   1.000
    O127    O    0.11010   0.52666   0.60627   1.000
    N128    N    0.64041   0.51257   0.56040   1.000
    O129    O    0.59590   0.50860   0.53177   1.000
    O130    O    0.64896   0.51963   0.61561   1.000
    O131    O    0.61010   0.52666   0.60627   1.000
    N132    N    0.29904   0.13920   0.92978   1.000
    O133    O    0.27797   0.09048   0.94399   1.000
    O134    O    0.26899   0.10608   0.89944   1.000
    O135    O    0.28774   0.18137   0.89123   1.000
    N136    N    0.54986   0.36079   0.42831   1.000
    O137    O    0.51944   0.39387   0.39865   1.000
    O138    O    0.52839   0.40945   0.44319   1.000
    O139    O    0.53864   0.31892   0.38923   1.000
    N140    N    0.06822   0.36594   0.21571   1.000
    O141    O    0.03619   0.39770   0.25009   1.000
    O142    O    0.05982   0.42186   0.22350   1.000
    O143    O    0.04801   0.32051   0.24231   1.000
    N144    N    0.73765   0.09360   0.13828   1.000
    O145    O    0.75017   0.04165   0.15950   1.000
    O146    O    0.72651   0.06581   0.18611   1.000
    O147    O    0.74378   0.06934   0.08709   1.000
    N148    N    0.23766   0.09360   0.13828   1.000
    O149    O    0.22651   0.06581   0.18611   1.000
    O150    O    0.25017   0.04165   0.15950   1.000
    O151    O    0.24379   0.06934   0.08709   1.000
    N152    N    0.26227   0.40619   0.13831   1.000
    O153    O    0.27343   0.43401   0.18616   1.000
    O154    O    0.24978   0.45812   0.15957   1.000
    O155    O    0.25615   0.43052   0.08711   1.000
    N156    N    0.08043   0.99821   0.17258   1.000
    O157    O    0.07290   0.02167   0.22489   1.000
    O158    O    0.11176   0.01464   0.21557   1.000
    O159    O    0.03176   0.98420   0.17838   1.000
    N160    N    0.76232   0.90639   0.86168   1.000
    O161    O    0.77347   0.93419   0.81384   1.000
    O162    O    0.74981   0.95835   0.84044   1.000
    O163    O    0.75620   0.93065   0.91288   1.000
    N164    N    0.11370   0.18594   0.80537   1.000
    O165    O    0.15381   0.15024   0.81131   1.000
    O166    O    0.16273   0.19719   0.80883   1.000
    O167    O    0.08758   0.13798   0.79742   1.000
    N168    N    0.10942   0.01280   0.93957   1.000
    O169    O    0.10088   0.01987   0.88432   1.000
    O170    O    0.13973   0.02690   0.89367   1.000
    O171    O    0.15399   0.00872   0.96819   1.000
    N172    N    0.60941   0.01280   0.93957   1.000
    O173    O    0.60087   0.01987   0.88432   1.000
    O174    O    0.63972   0.02690   0.89367   1.000
    O175    O    0.65398   0.00872   0.96819   1.000
    N176    N    0.45014   0.13923   0.42829   1.000
    O177    O    0.47161   0.09057   0.44318   1.000
    O178    O    0.48056   0.10616   0.39864   1.000
    O179    O    0.46136   0.18111   0.38922   1.000
    N180    N    0.04985   0.86076   0.57169   1.000
    O181    O    0.03863   0.81888   0.61077   1.000
    O182    O    0.01943   0.89383   0.60134   1.000
    O183    O    0.02839   0.90943   0.55680   1.000
    N184    N    0.63609   0.68565   0.69367   1.000
    O185    O    0.58702   0.69693   0.69132   1.000
    O186    O    0.59598   0.65002   0.68827   1.000
    O187    O    0.66229   0.63772   0.70156   1.000
    N188    N    0.95014   0.13924   0.42829   1.000
    O189    O    0.96136   0.18112   0.38922   1.000
    O190    O    0.98056   0.10616   0.39864   1.000
    O191    O    0.97160   0.09057   0.44318   1.000
    N192    N    0.43176   0.13404   0.21568   1.000
    O193    O    0.46380   0.10229   0.25007   1.000
    O194    O    0.44017   0.07812   0.22350   1.000
    O195    O    0.45197   0.17949   0.24229   1.000
    N196    N    0.93175   0.13404   0.21566   1.000
    O197    O    0.96380   0.10229   0.25004   1.000
    O198    O    0.94017   0.07812   0.22347   1.000
    O199    O    0.95196   0.17949   0.24228   1.000
    N200    N    0.45013   0.63920   0.57167   1.000
    O201    O    0.48055   0.60613   0.60132   1.000
    O202    O    0.47160   0.59054   0.55679   1.000
    O203    O    0.46135   0.68107   0.61075   1.000
    N204    N    0.16952   0.49830   0.32740   1.000
    O205    O    0.21822   0.48430   0.32163   1.000
    O206    O    0.17705   0.52168   0.27510   1.000
    O207    O    0.13820   0.51470   0.28442   1.000
    N208    N    0.66951   0.49830   0.32740   1.000
    O209    O    0.71821   0.48430   0.32163   1.000
    O210    O    0.67705   0.52168   0.27510   1.000
    O211    O    0.63819   0.51470   0.28442   1.000
    N212    N    0.61389   0.68561   0.19314   1.000
    O213    O    0.58769   0.63774   0.20128   1.000
    O214    O    0.65399   0.64993   0.18788   1.000
    O215    O    0.66301   0.69683   0.19035   1.000
    N216    N    0.38629   0.81405   0.19461   1.000
    O217    O    0.41241   0.86201   0.20256   1.000
    O218    O    0.34618   0.84976   0.18866   1.000
    O219    O    0.33726   0.80280   0.19115   1.000
    N220    N    0.88629   0.81405   0.19461   1.000
    O221    O    0.84617   0.84976   0.18866   1.000
    O222    O    0.83725   0.80280   0.19115   1.000
    O223    O    0.91240   0.86201   0.20254   1.000
    N224    N    0.73771   0.59381   0.86167   1.000
    O225    O    0.74383   0.56947   0.91287   1.000
    O226    O    0.72656   0.56598   0.81382   1.000
    O227    O    0.75021   0.54188   0.84041   1.000
    N228    N    0.33048   0.50170   0.67239   1.000
    O229    O    0.32294   0.47831   0.72478   1.000
    O230    O    0.36180   0.48529   0.71547   1.000
    O231    O    0.28178   0.51569   0.67805   1.000
    N232    N    0.33050   0.00175   0.32729   1.000
    O233    O    0.32296   0.97831   0.27499   1.000
    O234    O    0.36181   0.98533   0.28435   1.000
    O235    O    0.28180   0.01572   0.32157   1.000
    N236    N    0.83050   0.00175   0.32729   1.000
    O237    O    0.86180   0.98533   0.28435   1.000
    O238    O    0.82295   0.97831   0.27499   1.000
    O239    O    0.78179   0.01572   0.32157   1.000
    N240    N    0.69953   0.36242   0.92832   1.000
    O241    O    0.72128   0.41054   0.94323   1.000
    O242    O    0.73025   0.39500   0.89868   1.000
    O243    O    0.71079   0.32020   0.88980   1.000
    N244    N    0.18210   0.36585   0.71585   1.000
    O245    O    0.19036   0.42181   0.72359   1.000
    O246    O    0.21401   0.39770   0.75017   1.000
    O247    O    0.20217   0.32050   0.74305   1.000
    N248    N    0.68209   0.36585   0.71585   1.000
    O249    O    0.70217   0.32050   0.74305   1.000
    O250    O    0.69035   0.42181   0.72359   1.000
    O251    O    0.71400   0.39770   0.75017   1.000
    N252    N    0.58047   0.49837   0.82733   1.000
    O253    O    0.53179   0.48433   0.82157   1.000
    O254    O    0.61177   0.51473   0.78435   1.000
    O255    O    0.57291   0.52175   0.77501   1.000
    N256    N    0.13610   0.68565   0.69369   1.000
    O257    O    0.08703   0.69693   0.69133   1.000
    O258    O    0.09598   0.65002   0.68828   1.000
    O259    O    0.16230   0.63772   0.70157   1.000
    N260    N    0.16949   0.99824   0.67270   1.000
    O261    O    0.21820   0.98427   0.67841   1.000
    O262    O    0.13819   0.01466   0.71564   1.000
    O263    O    0.17703   0.02168   0.72498   1.000
    N264    N    0.66948   0.99824   0.67270   1.000
    O265    O    0.63818   0.01466   0.71564   1.000
    O266    O    0.67703   0.02168   0.72498   1.000
    O267    O    0.71819   0.98427   0.67841   1.000
    N268    N    0.19953   0.36242   0.92832   1.000
    O269    O    0.22129   0.41054   0.94323   1.000
    O270    O    0.23025   0.39500   0.89868   1.000
    O271    O    0.21080   0.32020   0.88980   1.000
    N272    N    0.98785   0.90649   0.36179   1.000
    O273    O    0.00025   0.95843   0.34056   1.000
    O274    O    0.97662   0.93426   0.31399   1.000
    O275    O    0.99392   0.93071   0.41297   1.000
    N276    N    0.48786   0.90649   0.36179   1.000
    O277    O    0.47662   0.93426   0.31399   1.000
    O278    O    0.50025   0.95843   0.34056   1.000
    O279    O    0.49392   0.93071   0.41297   1.000
    N280    N    0.06823   0.86595   0.78430   1.000
    O281    O    0.04802   0.82050   0.75769   1.000
    O282    O    0.05982   0.92187   0.77648   1.000
    O283    O    0.03619   0.89770   0.74991   1.000
    N284    N    0.10942   0.51264   0.06046   1.000
    O285    O    0.13977   0.52666   0.10636   1.000
    O286    O    0.10091   0.51968   0.11568   1.000
    O287    O    0.15398   0.50865   0.03182   1.000
    N288    N    0.04987   0.36079   0.42831   1.000
    O289    O    0.03865   0.31892   0.38923   1.000
    O290    O    0.01944   0.39387   0.39865   1.000
    O291    O    0.02840   0.40945   0.44319   1.000
    N292    N    0.56821   0.36594   0.21571   1.000
    O293    O    0.53618   0.39770   0.25009   1.000
    O294    O    0.55981   0.42186   0.22350   1.000
    O295    O    0.54801   0.32051   0.24231   1.000
    N296    N    0.26233   0.90639   0.86168   1.000
    O297    O    0.27348   0.93419   0.81384   1.000
    O298    O    0.24982   0.95835   0.84044   1.000
    O299    O    0.25620   0.93065   0.91288   1.000
    N300    N    0.61369   0.18594   0.80537   1.000
    O301    O    0.65380   0.15024   0.81131   1.000
    O302    O    0.66273   0.19719   0.80883   1.000
    O303    O    0.58758   0.13798   0.79742   1.000
    N304    N    0.54984   0.86076   0.57169   1.000
    O305    O    0.53862   0.81888   0.61077   1.000
    O306    O    0.51942   0.89383   0.60134   1.000
    O307    O    0.52838   0.90943   0.55680   1.000
    N308    N    0.35952   0.98743   0.56041   1.000
    O309    O    0.35099   0.98036   0.61563   1.000
    O310    O    0.38984   0.97333   0.60631   1.000
    O311    O    0.40405   0.99140   0.53179   1.000
    N312    N    0.56823   0.86595   0.78431   1.000
    O313    O    0.53618   0.89770   0.74991   1.000
    O314    O    0.55981   0.92187   0.77648   1.000
    O315    O    0.54802   0.82050   0.75769   1.000
    N316    N    0.41956   0.00179   0.82738   1.000
    O317    O    0.42710   0.97832   0.77508   1.000
    O318    O    0.38824   0.98535   0.78440   1.000
    O319    O    0.46823   0.01579   0.82158   1.000
    N320    N    0.51221   0.59360   0.36170   1.000
    O321    O    0.49979   0.54166   0.34047   1.000
    O322    O    0.52342   0.56581   0.31388   1.000
    O323    O    0.50611   0.56934   0.41290   1.000
    N324    N    0.36390   0.31435   0.30630   1.000
    O325    O    0.41296   0.30306   0.30866   1.000
    O326    O    0.40401   0.34998   0.31169   1.000
    O327    O    0.33769   0.36227   0.29842   1.000
    N328    N    0.58043   0.99821   0.17258   1.000
    O329    O    0.57289   0.02167   0.22489   1.000
    O330    O    0.61175   0.01464   0.21557   1.000
    O331    O    0.53176   0.98420   0.17838   1.000
    N332    N    0.18173   0.86571   0.28294   1.000
    O333    O    0.20194   0.82032   0.25580   1.000
    O334    O    0.21386   0.89761   0.24915   1.000
    O335    O    0.19020   0.92177   0.27575   1.000
    N336    N    0.68172   0.86571   0.28279   1.000
    O337    O    0.69019   0.92177   0.27568   1.000
    O338    O    0.71385   0.89761   0.24907   1.000
    O339    O    0.70193   0.82032   0.25573   1.000
    N340    N    0.31789   0.63414   0.28414   1.000
    O341    O    0.28599   0.60229   0.24981   1.000
    O342    O    0.30964   0.57818   0.27640   1.000
    O343    O    0.29782   0.67950   0.25693   1.000
    N344    N    0.91951   0.50162   0.17263   1.000
    O345    O    0.92707   0.47824   0.22494   1.000
    O346    O    0.88820   0.48527   0.21562   1.000
    O347    O    0.96819   0.51566   0.17840   1.000
    N348    N    0.01222   0.59360   0.36170   1.000
    O349    O    0.02343   0.56581   0.31388   1.000
    O350    O    0.99980   0.54166   0.34047   1.000
    O351    O    0.00612   0.56934   0.41290   1.000
    N352    N    0.13611   0.18564   0.30615   1.000
    O353    O    0.08705   0.19693   0.30858   1.000
    O354    O    0.09600   0.15002   0.31161   1.000
    O355    O    0.16231   0.13772   0.29830   1.000
    N356    N    0.23772   0.59381   0.86167   1.000
    O357    O    0.22657   0.56598   0.81382   1.000
    O358    O    0.25021   0.54188   0.84041   1.000
    O359    O    0.24384   0.56947   0.91287   1.000
    N360    N    0.60942   0.51264   0.06046   1.000
    O361    O    0.65398   0.50866   0.03182   1.000
    O362    O    0.63976   0.52666   0.10636   1.000
    O363    O    0.60091   0.51968   0.11568   1.000
    N364    N    0.79904   0.13920   0.92980   1.000
    O365    O    0.77796   0.09048   0.94400   1.000
    O366    O    0.76898   0.10608   0.89945   1.000
    O367    O    0.78774   0.18137   0.89124   1.000
    N368    N    0.31826   0.13428   0.71705   1.000
    O369    O    0.30980   0.07822   0.72423   1.000
    O370    O    0.28613   0.10238   0.75083   1.000
    O371    O    0.29806   0.17967   0.74418   1.000
    N372    N    0.81826   0.13428   0.71705   1.000
    O373    O    0.80979   0.07822   0.72423   1.000
    O374    O    0.78613   0.10238   0.75083   1.000
    O375    O    0.79805   0.17967   0.74418   1.000
    N376    N    0.91955   0.00179   0.82738   1.000
    O377    O    0.88823   0.98535   0.78440   1.000
    O378    O    0.92709   0.97832   0.77508   1.000
    O379    O    0.96822   0.01579   0.82158   1.000
    N380    N    0.01213   0.09350   0.63818   1.000
    O381    O    0.02337   0.06573   0.68597   1.000
    O382    O    0.99974   0.04156   0.65940   1.000
    O383    O    0.00607   0.06929   0.58700   1.000
    N384    N    0.81788   0.63414   0.28414   1.000
    O385    O    0.80963   0.57818   0.27640   1.000
    O386    O    0.78598   0.60229   0.24981   1.000
    O387    O    0.79781   0.67950   0.25693   1.000
    N388    N    0.41951   0.50163   0.17263   1.000
    O389    O    0.42708   0.47824   0.22494   1.000
    O390    O    0.38821   0.48527   0.21562   1.000
    O391    O    0.46819   0.51566   0.17840   1.000
    N392    N    0.63610   0.18564   0.30616   1.000
    O393    O    0.58704   0.19693   0.30858   1.000
    O394    O    0.59600   0.15002   0.31162   1.000
    O395    O    0.66230   0.13771   0.29831   1.000
    N396    N    0.14047   0.01256   0.43955   1.000
    O397    O    0.11015   0.02666   0.39366   1.000
    O398    O    0.14901   0.01963   0.38434   1.000
    O399    O    0.09594   0.00860   0.46818   1.000
    N400    N    0.51213   0.09350   0.63818   1.000
    O401    O    0.52336   0.06573   0.68597   1.000
    O402    O    0.49973   0.04156   0.65940   1.000
    O403    O    0.50606   0.06929   0.58700   1.000
    N404    N    0.86389   0.31435   0.30625   1.000
    O405    O    0.91296   0.30306   0.30864   1.000
    O406    O    0.90400   0.34998   0.31166   1.000
    O407    O    0.83768   0.36227   0.29839   1.000
    N408    N    0.35957   0.48743   0.43940   1.000
    O409    O    0.40409   0.49140   0.46795   1.000
    O410    O    0.35103   0.48036   0.38427   1.000
    O411    O    0.38989   0.47333   0.39359   1.000
    N412    N    0.85957   0.48743   0.43957   1.000
    O413    O    0.90409   0.49140   0.46821   1.000
    O414    O    0.85102   0.48036   0.38436   1.000
    O415    O    0.88988   0.47333   0.39368   1.000
    N416    N    0.64046   0.01256   0.43955   1.000
    O417    O    0.61014   0.02666   0.39366   1.000
    O418    O    0.64900   0.01963   0.38434   1.000
    O419    O    0.59593   0.00860   0.46818   1.000
    N420    N    0.36388   0.81435   0.69385   1.000
    O421    O    0.33768   0.86227   0.70168   1.000
    O422    O    0.40399   0.84997   0.68838   1.000
    O423    O    0.41295   0.80306   0.69141   1.000
    N424    N    0.86388   0.81435   0.69362   1.000
    O425    O    0.83768   0.86228   0.70157   1.000
    O426    O    0.91294   0.80306   0.69130   1.000
    O427    O    0.90398   0.84997   0.68827   1.000
    N428    N    0.89057   0.98720   0.06041   1.000
    O429    O    0.86026   0.97310   0.10630   1.000
    O430    O    0.89911   0.98012   0.11565   1.000
    O431    O    0.84599   0.99128   0.03178   1.000
loop_
    _geom_bond_atom_site_label_1
    _geom_bond_atom_site_label_2
    _geom_bond_distance
    _geom_bond_site_symmetry_2
    _ccdc_geom_bond_type
    N48    O49       1.08156      .   S
    Zr8    O49       2.10713  1_455   S
    N48    O50       1.05374      .   S
    Zr11   O50       2.07620      .   S
    N48    O51       1.05455      .   S
    Zr32   O51       2.04864      .   S
    N52    O53       1.04987      .   S
    Zr43   O53       2.03870  1_554   S
    N52    O54       1.04631      .   S
    Zr11   O54       2.05602      .   S
    N52    O55       1.08105      .   S
    Zr5    O55       2.11474      .   S
    N56    O57       1.04057      .   S
    Zr10   O57       2.01220      .   S
    N56    O58       1.04896      .   S
    Zr4    O58       2.03106      .   S
    N56    O59       1.01778      .   S
    Zr34   O59       2.01904      .   S
    N60    O61       1.04057      .   S
    Zr11   O61       2.01220      .   S
    N60    O62       1.04897      .   S
    Zr5    O62       2.03107      .   S
    N60    O63       1.01778      .   S
    Zr35   O63       2.01904      .   S
    N64    O65       1.04631      .   S
    Zr10   O65       2.05602      .   S
    N64    O66       1.08105      .   S
    Zr4    O66       2.11474      .   S
    N64    O67       1.04986      .   S
    Zr42   O67       2.03869      .   S
    N68    O69       1.04865      .   S
    Zr10   O69       2.04442      .   S
    N68    O70       1.06475      .   S
    Zr9    O70       2.07651      .   S
    N68    O71       1.05644      .   S
    Zr45   O71       2.06281      .   S
    N72    O73       1.04871      .   S
    Zr11   O73       2.04423      .   S
    N72    O74       1.06479  1_655   S
    Zr8    O74       2.07656      .   S
    N72    O75       1.05651      .   S
    Zr44   O75       2.06287  1_455   S
    N76    O77       1.07232      .   S
    Zr8    O77       2.08607      .   S
    N76    O78       1.06245      .   S
    Zr6    O78       2.08746      .   S
    N76    O79       1.02522      .   S
    Zr11   O79       1.98795  1_655   S
    N80    O81       1.08257      .   S
    Zr32   O81       2.09720      .   S
    N80    O82       1.02579      .   S
    Zr8    O82       1.98188  1_455   S
    N80    O83       1.03350      .   S
    Zr44   O83       2.05455  1_455   S
    N84    O85       1.08153      .   S
    Zr9    O85       2.10704      .   S
    N84    O86       1.05374      .   S
    Zr10   O86       2.07618      .   S
    N84    O87       1.05456      .   S
    Zr33   O87       2.04870      .   S
    N88    O89       1.04925      .   S
    Zr23   O89       2.04481      .   S
    N88    O90       1.06497      .   S
    Zr21   O90       2.07684      .   S
    N88    O91       1.05706      .   S
    Zr43   O91       2.06445      .   S
    N92    O93       1.04060      .   S
    Zr26   O93       2.01225      .   S
    N92    O94       1.04898      .   S
    Zr20   O94       2.03105      .   S
    N92    O95       1.01779      .   S
    Zr38   O95       2.01902      .   S
    N96    O97       1.07375      .   S
    Zr5    O97       2.08732      .   S
    N96    O98       1.06354      .   S
    Zr11   O98       2.08769      .   S
    N96    O99       1.02473      .   S
    Zr7    O99       1.98942      .   S
    N100   O101      1.04660      .   S
    Zr15   O101      2.05671      .   S
    N100   O102      1.08090      .   S
    Zr1    O102      2.11394      .   S
    N100   O103      1.04942      .   S
    Zr40   O103      2.03747  1_545   S
    N104   O105      1.02932      .   S
    Zr29   O105      1.98884      .   S
    N104   O106      1.02843      .   S
    Zr47   O106      2.04431  1_545   S
    N104   O107      1.08014      .   S
    Zr39   O107      2.08839      .   S
    N108   O109      1.02930      .   S
    Zr28   O109      1.98881      .   S
    N108   O110      1.02844      .   S
    Zr46   O110      2.04433  1_545   S
    N108   O111      1.08011      .   S
    Zr38   O111      2.08835      .   S
    N112   O113      1.02485      .   S
    Zr20   O113      1.98171      .   S
    N112   O114      1.02820      .   S
    Zr42   O114      2.04020  1_556   S
    N112   O115      1.08024      .   S
    Zr38   O115      2.09044      .   S
    N116   O117      1.08024      .   S
    Zr39   O117      2.09044      .   S
    N116   O118      1.02485      .   S
    Zr21   O118      1.98171      .   S
    N116   O119      1.02819      .   S
    Zr43   O119      2.04014      .   S
    N120   O121      1.04979      .   S
    Zr46   O121      2.03787  1_545   S
    N120   O122      1.08135      .   S
    Zr28   O122      2.11500      .   S
    N120   O123      1.04700      .   S
    Zr18   O123      2.05678      .   S
    N124   O125      1.04880      .   S
    Zr44   O125      2.03600      .   S
    N124   O126      1.04630      .   S
    Zr6    O126      2.05706      .   S
    N124   O127      1.08085      .   S
    Zr8    O127      2.11417      .   S
    N128   O129      1.04880      .   S
    Zr45   O129      2.03600      .   S
    N128   O130      1.04630      .   S
    Zr7    O130      2.05705      .   S
    N128   O131      1.08084      .   S
    Zr9    O131      2.11416      .   S
    N132   O133      1.02847      .   S
    Zr46   O133      2.04442  1_554   S
    N132   O134      1.02936      .   S
    Zr12   O134      1.98927      .   S
    N132   O135      1.08002      .   S
    Zr34   O135      2.08830      .   S
    N136   O137      1.02590      .   S
    Zr24   O137      1.98237      .   S
    N136   O138      1.03346      .   S
    Zr45   O138      2.05447      .   S
    N136   O139      1.08256      .   S
    Zr37   O139      2.09714      .   S
    N140   O141      1.08139      .   S
    Zr25   O141      2.10658  1_655   S
    N140   O142      1.05374      .   S
    Zr26   O142      2.07619      .   S
    N140   O143      1.05455      .   S
    Zr36   O143      2.04870      .   S
    N144   O145      1.06509      .   S
    Zr29   O145      2.07714  1_565   S
    N144   O146      1.04876      .   S
    Zr31   O146      2.04495      .   S
    N144   O147      1.05644      .   S
    Zr47   O147      2.06281      .   S
    N148   O149      1.04876      .   S
    Zr30   O149      2.04495      .   S
    N148   O150      1.06509      .   S
    Zr28   O150      2.07713  1_565   S
    N148   O151      1.05644      .   S
    Zr46   O151      2.06281      .   S
    N152   O153      1.04925      .   S
    Zr22   O153      2.04481      .   S
    N152   O154      1.06497      .   S
    Zr20   O154      2.07684      .   S
    N152   O155      1.05711      .   S
    Zr42   O155      2.06458  1_556   S
    N156   O157      1.07283  1_565   S
    Zr16   O157      2.08734      .   S
    N156   O158      1.06277  1_565   S
    Zr30   O158      2.08796      .   S
    N156   O159      1.02497      .   S
    Zr19   O159      1.98768  1_655   S
    N160   O161      1.04887      .   S
    Zr15   O161      2.04456      .   S
    N160   O162      1.06522      .   S
    Zr13   O162      2.07716  1_545   S
    N160   O163      1.05668      .   S
    Zr47   O163      2.06322  1_544   S
    N164   O165      1.05058      .   S
    Zr12   O165      2.03527      .   S
    N164   O166      1.01673      .   S
    Zr34   O166      2.01700      .   S
    N164   O167      1.04060      .   S
    Zr2    O167      2.01241      .   S
    N168   O169      1.04690      .   S
    Zr2    O169      2.05677      .   S
    N168   O170      1.08146      .   S
    Zr12   O170      2.11545      .   S
    N168   O171      1.04973      .   S
    Zr46   O171      2.03800  1_554   S
    N172   O173      1.04690      .   S
    Zr3    O173      2.05677      .   S
    N172   O174      1.08146      .   S
    Zr13   O174      2.11545      .   S
    N172   O175      1.04974      .   S
    Zr47   O175      2.03802  1_554   S
    N176   O177      1.03348      .   S
    Zr41   O177      2.05456      .   S
    N176   O178      1.02599      .   S
    Zr17   O178      1.98272      .   S
    N176   O179      1.08265      .   S
    Zr37   O179      2.09733      .   S
    N180   O181      1.08267      .   S
    Zr32   O181      2.09755  1_655   S
    N180   O182      1.02605      .   S
    Zr1    O182      1.98279  1_655   S
    N180   O183      1.03351      .   S
    Zr40   O183      2.05471  1_645   S
    N184   O185      1.01604      .   S
    Zr33   O185      2.01478      .   S
    N184   O186      1.04970      .   S
    Zr9    O186      2.03320      .   S
    N184   O187      1.03999      .   S
    Zr7    O187      2.01074      .   S
    N188   O189      1.08266      .   S
    Zr36   O189      2.09739  1_455   S
    N188   O190      1.02603      .   S
    Zr16   O190      1.98283  1_455   S
    N188   O191      1.03351      .   S
    Zr40   O191      2.05463      .   S
    N192   O193      1.08125      .   S
    Zr17   O193      2.10620      .   S
    N192   O194      1.05403      .   S
    Zr18   O194      2.07656  1_565   S
    N192   O195      1.05473      .   S
    Zr37   O195      2.04910      .   S
    N196   O197      1.08115      .   S
    Zr16   O197      2.10676  1_455   S
    N196   O198      1.05400      .   S
    Zr19   O198      2.07651  1_565   S
    N196   O199      1.05486      .   S
    Zr36   O199      2.04933  1_455   S
    N200   O201      1.02575      .   S
    Zr9    O201      1.98177      .   S
    N200   O202      1.03346      .   S
    Zr45   O202      2.05449      .   S
    N200   O203      1.08257      .   S
    Zr33   O203      2.09722      .   S
    N204   O205      1.02492      .   S
    Zr22   O205      1.98749      .   S
    N204   O206      1.07209      .   S
    Zr20   O206      2.08573      .   S
    N204   O207      1.06212      .   S
    Zr26   O207      2.08648      .   S
    N208   O209      1.02492      .   S
    Zr23   O209      1.98750      .   S
    N208   O210      1.07209      .   S
    Zr21   O210      2.08573      .   S
    N208   O211      1.06212      .   S
    Zr27   O211      2.08648      .   S
    N212   O213      1.04058      .   S
    Zr27   O213      2.01228      .   S
    N212   O214      1.04897      .   S
    Zr21   O214      2.03104      .   S
    N212   O215      1.01778      .   S
    Zr39   O215      2.01903      .   S
    N216   O217      1.04059      .   S
    Zr18   O217      2.01239      .   S
    N216   O218      1.05060      .   S
    Zr28   O218      2.03533      .   S
    N216   O219      1.01672      .   S
    Zr38   O219      2.01700      .   S
    N220   O221      1.05059      .   S
    Zr29   O221      2.03533      .   S
    N220   O222      1.01672      .   S
    Zr39   O222      2.01699      .   S
    N220   O223      1.04057      .   S
    Zr19   O223      2.01244      .   S
    N224   O225      1.05716      .   S
    Zr43   O225      2.06470  1_554   S
    N224   O226      1.04924      .   S
    Zr7    O226      2.04482      .   S
    N224   O227      1.06497      .   S
    Zr5    O227      2.07687      .   S
    N228   O229      1.07375      .   S
    Zr4    O229      2.08732      .   S
    N228   O230      1.06354      .   S
    Zr10   O230      2.08769      .   S
    N228   O231      1.02473      .   S
    Zr6    O231      1.98940      .   S
    N232   O233      1.07243  1_545   S
    Zr28   O233      2.08604      .   S
    N232   O234      1.06188  1_545   S
    Zr18   O234      2.08614      .   S
    N232   O235      1.02473      .   S
    Zr30   O235      1.98687      .   S
    N236   O237      1.06188  1_545   S
    Zr19   O237      2.08614      .   S
    N236   O238      1.07243  1_545   S
    Zr29   O238      2.08604      .   S
    N236   O239      1.02473      .   S
    Zr31   O239      1.98687      .   S
    N240   O241      1.02819      .   S
    Zr43   O241      2.04026  1_554   S
    N240   O242      1.02486      .   S
    Zr5    O242      1.98166      .   S
    N240   O243      1.08025      .   S
    Zr35   O243      2.09047      .   S
    N244   O245      1.05426      .   S
    Zr6    O245      2.07643      .   S
    N244   O246      1.08045      .   S
    Zr4    O246      2.10408      .   S
    N244   O247      1.05680      .   S
    Zr34   O247      2.05712      .   S
    N248   O249      1.05679      .   S
    Zr35   O249      2.05717      .   S
    N248   O250      1.05426      .   S
    Zr7    O250      2.07643      .   S
    N248   O251      1.08047      .   S
    Zr5    O251      2.10410      .   S
    N252   O253      1.02513      .   S
    Zr10   O253      1.98766      .   S
    N252   O254      1.06236      .   S
    Zr7    O254      2.08727      .   S
    N252   O255      1.07221      .   S
    Zr9    O255      2.08579      .   S
    N256   O257      1.01612      .   S
    Zr32   O257      2.01497  1_655   S
    N256   O258      1.04972      .   S
    Zr8    O258      2.03321      .   S
    N256   O259      1.03997      .   S
    Zr6    O259      2.01073      .   S
    N260   O261      1.02472      .   S
    Zr14   O261      1.98685      .   S
    N260   O262      1.06188  1_565   S
    Zr2    O262      2.08608      .   S
    N260   O263      1.07222  1_565   S
    Zr12   O263      2.08537      .   S
    N264   O265      1.06188  1_565   S
    Zr3    O265      2.08608      .   S
    N264   O266      1.07223  1_565   S
    Zr13   O266      2.08538      .   S
    N264   O267      1.02472      .   S
    Zr15   O267      1.98685      .   S
    N268   O269      1.02818      .   S
    Zr42   O269      2.04021      .   S
    N268   O270      1.02486      .   S
    Zr4    O270      1.98166      .   S
    N268   O271      1.08024      .   S
    Zr34   O271      2.09046      .   S
    N272   O273      1.06484  1_655   S
    Zr16   O273      2.07567  1_545   S
    N272   O274      1.04812      .   S
    Zr19   O274      2.04364      .   S
    N272   O275      1.05577      .   S
    Zr40   O275      2.06110  1_545   S
    N276   O277      1.04812      .   S
    Zr18   O277      2.04364      .   S
    N276   O278      1.06481      .   S
    Zr17   O278      2.07559  1_545   S
    N276   O279      1.05576      .   S
    Zr41   O279      2.06109  1_545   S
    N280   O281      1.05474      .   S
    Zr32   O281      2.04912  1_655   S
    N280   O282      1.05402      .   S
    Zr2    O282      2.07654  1_545   S
    N280   O283      1.08127      .   S
    Zr1    O283      2.10638  1_655   S
    N284   O285      1.08103      .   S
    Zr20   O285      2.11472      .   S
    N284   O286      1.04633      .   S
    Zr26   O286      2.05612      .   S
    N284   O287      1.04984      .   S
    Zr42   O287      2.03868  1_556   S
    N288   O289      1.08255      .   S
    Zr36   O289      2.09714      .   S
    N288   O290      1.02594      .   S
    Zr25   O290      1.98248  1_655   S
    N288   O291      1.03346      .   S
    Zr44   O291      2.05447      .   S
    N292   O293      1.08136      .   S
    Zr24   O293      2.10647      .   S
    N292   O294      1.05375      .   S
    Zr27   O294      2.07619      .   S
    N292   O295      1.05457      .   S
    Zr37   O295      2.04873      .   S
    N296   O297      1.04887      .   S
    Zr14   O297      2.04456      .   S
    N296   O298      1.06522      .   S
    Zr12   O298      2.07716  1_545   S
    N296   O299      1.05668      .   S
    Zr46   O299      2.06322  1_544   S
    N300   O301      1.05058      .   S
    Zr13   O301      2.03527      .   S
    N300   O302      1.01673      .   S
    Zr35   O302      2.01699      .   S
    N300   O303      1.04059      .   S
    Zr3    O303      2.01240      .   S
    N304   O305      1.08267      .   S
    Zr33   O305      2.09741      .   S
    N304   O306      1.02600      .   S
    Zr0    O306      1.98267      .   S
    N304   O307      1.03352      .   S
    Zr41   O307      2.05472  1_545   S
    N308   O309      1.04660      .   S
    Zr14   O309      2.05670      .   S
    N308   O310      1.08090      .   S
    Zr0    O310      2.11394      .   S
    N308   O311      1.04936      .   S
    Zr41   O311      2.03728  1_545   S
    N312   O313      1.08124      .   S
    Zr0    O313      2.10623      .   S
    N312   O314      1.05403      .   S
    Zr3    O314      2.07656  1_545   S
    N312   O315      1.05472      .   S
    Zr33   O315      2.04903      .   S
    N316   O317      1.07269  1_545   S
    Zr0    O317      2.08728      .   S
    N316   O318      1.06266  1_545   S
    Zr14   O318      2.08793      .   S
    N316   O319      1.02492      .   S
    Zr3    O319      1.98735      .   S
    N320   O321      1.06488      .   S
    Zr24   O321      2.07661      .   S
    N320   O322      1.04868      .   S
    Zr27   O322      2.04412      .   S
    N320   O323      1.05650      .   S
    Zr45   O323      2.06286      .   S
    N324   O325      1.01606      .   S
    Zr37   O325      2.01480      .   S
    N324   O326      1.04968      .   S
    Zr24   O326      2.03313      .   S
    N324   O327      1.03997      .   S
    Zr22   O327      2.01072      .   S
    N328   O329      1.07283  1_565   S
    Zr17   O329      2.08734      .   S
    N328   O330      1.06277  1_565   S
    Zr31   O330      2.08796      .   S
    N328   O331      1.02490      .   S
    Zr18   O331      1.98748      .   S
    N332   O333      1.05796      .   S
    Zr38   O333      2.05444      .   S
    N332   O334      1.07816      .   S
    Zr28   O334      2.09993      .   S
    N332   O335      1.05547      .   S
    Zr30   O335      2.07832  1_545   S
    N336   O337      1.05529      .   S
    Zr31   O337      2.07843  1_545   S
    N336   O338      1.07736      .   S
    Zr29   O338      2.09906      .   S
    N336   O339      1.05730      .   S
    Zr39   O339      2.05359      .   S
    N340   O341      1.08045      .   S
    Zr20   O341      2.10415      .   S
    N340   O342      1.05426      .   S
    Zr22   O342      2.07643      .   S
    N340   O343      1.05681      .   S
    Zr38   O343      2.05718      .   S
    N344   O345      1.07205      .   S
    Zr25   O345      2.08532      .   S
    N344   O346      1.06244      .   S
    Zr23   O346      2.08745      .   S
    N344   O347      1.02522      .   S
    Zr26   O347      1.98798  1_455   S
    N348   O349      1.04868      .   S
    Zr26   O349      2.04412      .   S
    N348   O350      1.06489  1_455   S
    Zr25   O350      2.07668      .   S
    N348   O351      1.05650      .   S
    Zr44   O351      2.06286      .   S
    N352   O353      1.01620      .   S
    Zr36   O353      2.01547      .   S
    N352   O354      1.04963      .   S
    Zr16   O354      2.03282      .   S
    N352   O355      1.03981      .   S
    Zr30   O355      2.01012      .   S
    N356   O357      1.04925      .   S
    Zr6    O357      2.04482      .   S
    N356   O358      1.06497      .   S
    Zr4    O358      2.07687      .   S
    N356   O359      1.05711      .   S
    Zr42   O359      2.06457      .   S
    N360   O361      1.04982      .   S
    Zr43   O361      2.03867      .   S
    N360   O362      1.08102      .   S
    Zr21   O362      2.11471      .   S
    N360   O363      1.04633      .   S
    Zr27   O363      2.05612      .   S
    N364   O365      1.02843      .   S
    Zr47   O365      2.04433  1_554   S
    N364   O366      1.02945      .   S
    Zr13   O366      1.98939      .   S
    N364   O367      1.08012      .   S
    Zr35   O367      2.08841      .   S
    N368   O369      1.05546      .   S
    Zr14   O369      2.07833  1_565   S
    N368   O370      1.07802      .   S
    Zr12   O370      2.09941      .   S
    N368   O371      1.05793      .   S
    Zr34   O371      2.05440      .   S
    N372   O373      1.05546      .   S
    Zr15   O373      2.07833  1_565   S
    N372   O374      1.07801      .   S
    Zr13   O374      2.09941      .   S
    N372   O375      1.05792      .   S
    Zr35   O375      2.05440      .   S
    N376   O377      1.06266  1_545   S
    Zr15   O377      2.08792      .   S
    N376   O378      1.07269  1_545   S
    Zr1    O378      2.08729      .   S
    N376   O379      1.02499      .   S
    Zr2    O379      1.98756  1_455   S
    N380   O381      1.04804      .   S
    Zr2    O381      2.04398      .   S
    N380   O382      1.06480  1_455   S
    Zr1    O382      2.07573  1_565   S
    N380   O383      1.05562      .   S
    Zr40   O383      2.06090  1_655   S
    N384   O385      1.05426      .   S
    Zr23   O385      2.07642      .   S
    N384   O386      1.08045      .   S
    Zr21   O386      2.10413      .   S
    N384   O387      1.05681      .   S
    Zr39   O387      2.05718      .   S
    N388   O389      1.07206      .   S
    Zr24   O389      2.08534      .   S
    N388   O390      1.06244      .   S
    Zr22   O390      2.08745      .   S
    N388   O391      1.02515      .   S
    Zr27   O391      1.98779      .   S
    N392   O393      1.01620      .   S
    Zr37   O393      2.01547      .   S
    N392   O394      1.04962      .   S
    Zr17   O394      2.03281      .   S
    N392   O395      1.03982      .   S
    Zr31   O395      2.01013      .   S
    N396   O397      1.08081      .   S
    Zr16   O397      2.11384      .   S
    N396   O398      1.04649      .   S
    Zr30   O398      2.05661      .   S
    N396   O399      1.04941      .   S
    Zr40   O399      2.03732  1_655   S
    N400   O401      1.04805      .   S
    Zr3    O401      2.04398      .   S
    N400   O402      1.06478      .   S
    Zr0    O402      2.07565  1_565   S
    N400   O403      1.05562      .   S
    Zr41   O403      2.06089      .   S
    N404   O405      1.01614      .   S
    Zr36   O405      2.01498  1_455   S
    N404   O406      1.04973      .   S
    Zr25   O406      2.03316      .   S
    N404   O407      1.03991      .   S
    Zr23   O407      2.01066      .   S
    N408   O409      1.04804      .   S
    Zr45   O409      2.03741      .   S
    N408   O410      1.04482      .   S
    Zr22   O410      2.05537      .   S
    N408   O411      1.07988      .   S
    Zr24   O411      2.11351      .   S
    N412   O413      1.04892      .   S
    Zr44   O413      2.03620  1_455   S
    N412   O414      1.04641      .   S
    Zr23   O414      2.05683      .   S
    N412   O415      1.08116      .   S
    Zr25   O415      2.11453      .   S
    N416   O417      1.08080      .   S
    Zr17   O417      2.11384      .   S
    N416   O418      1.04649      .   S
    Zr31   O418      2.05662      .   S
    N416   O419      1.04941      .   S
    Zr41   O419      2.03731      .   S
    N420   O421      1.03982      .   S
    Zr14   O421      2.01014      .   S
    N420   O422      1.04964      .   S
    Zr0    O422      2.03284      .   S
    N420   O423      1.01619      .   S
    Zr33   O423      2.01546      .   S
    N424   O425      1.04011      .   S
    Zr15   O425      2.01039      .   S
    N424   O426      1.01610      .   S
    Zr32   O426      2.01545      .   S
    N424   O427      1.04944      .   S
    Zr1    O427      2.03264      .   S
    N428   O429      1.08135      .   S
    Zr29   O429      2.11500      .   S
    N428   O430      1.04700      .   S
    Zr19   O430      2.05678      .   S
    N428   O431      1.04978      .   S
    Zr47   O431      2.03785  1_545   S
