# CIF file generated by openbabel 2.4.90, see http://openbabel.sf.net
data_I
_chemical_name_common ''
_cell_length_a 15.316
_cell_length_b 19.21
_cell_length_c 19.485
_cell_angle_alpha 89.964
_cell_angle_beta 90
_cell_angle_gamma 90.069
_space_group_name_H-M_alt 'P 1'
_space_group_name_Hall 'P 1'
loop_
    _symmetry_equiv_pos_as_xyz
    x,y,z
loop_
    _atom_site_label
    _atom_site_type_symbol
    _atom_site_fract_x
    _atom_site_fract_y
    _atom_site_fract_z
    _atom_site_occupancy
    Zn0     Zn   0.75536   0.49988   0.50266   1.000
    Zn1     Zn   0.24475   0.50255   0.00000   1.000
    Zn2     Zn   0.74477   0.50255   0.00000   1.000
    Zn3     Zn   0.24471   0.99963   0.49997   1.000
    Zn4     Zn   0.74473   0.99963   0.49997   1.000
    Zn5     Zn   0.25528   0.00000   0.00000   1.000
    Zn6     Zn   0.75529   0.00000   0.00000   1.000
    Zn7     Zn   0.25534   0.49988   0.50266   1.000
    C8      C    0.18113   0.36812   0.49992   1.000
    C9      C    0.68114   0.36812   0.49992   1.000
    C10     C    0.31941   0.86821   0.49793   1.000
    C11     C    0.81942   0.86821   0.49793   1.000
    C12     C    0.13857   0.51701   0.89820   1.000
    C13     C    0.63858   0.51701   0.89822   1.000
    O14     O    0.62256   0.49973   0.96141   1.000
    O15     O    0.21327   0.53449   0.87805   1.000
    O16     O    0.71328   0.53449   0.87805   1.000
    O17     O    0.15587   0.06906   0.00262   1.000
    O18     O    0.65588   0.06906   0.00262   1.000
    O19     O    0.25695   0.15469   0.00214   1.000
    O20     O    0.75697   0.15469   0.00213   1.000
    O21     O    0.37748   0.50296   0.46126   1.000
    C22     C    0.17970   0.13385   0.99819   1.000
    C23     C    0.67972   0.13384   0.99819   1.000
    C24     C    0.36166   0.48513   0.39820   1.000
    C25     C    0.86167   0.48513   0.39820   1.000
    C26     C    0.36187   0.01724   0.89570   1.000
    C27     C    0.86189   0.01724   0.89570   1.000
    C28     C    0.32031   0.63337   0.99981   1.000
    C29     C    0.82033   0.63337   0.99981   1.000
    C30     C    0.13802   0.98513   0.39563   1.000
    C31     C    0.63804   0.98513   0.39563   1.000
    O32     O    0.34362   0.93289   0.50267   1.000
    O33     O    0.84364   0.93289   0.50267   1.000
    O34     O    0.24200   0.84765   0.50142   1.000
    O35     O    0.74202   0.84765   0.50142   1.000
    O36     O    0.12255   0.49973   0.96141   1.000
    O37     O    0.87749   0.50296   0.46126   1.000
    O38     O    0.28708   0.46732   0.37800   1.000
    O39     O    0.78710   0.46732   0.37807   1.000
    O40     O    0.15689   0.43269   0.50549   1.000
    O41     O    0.65691   0.43269   0.50549   1.000
    O42     O    0.25851   0.34762   0.50300   1.000
    O43     O    0.75853   0.34762   0.50300   1.000
    O44     O    0.37755   0.99986   0.95890   1.000
    O45     O    0.87757   0.99986   0.95890   1.000
    O46     O    0.28737   0.03499   0.87543   1.000
    O47     O    0.78738   0.03499   0.87543   1.000
    O48     O    0.34434   0.56876   0.00536   1.000
    O49     O    0.84436   0.56876   0.00536   1.000
    O50     O    0.24293   0.65387   0.00310   1.000
    O51     O    0.74295   0.65387   0.00310   1.000
    O52     O    0.12248   0.00284   0.45874   1.000
    O53     O    0.62250   0.00284   0.45874   1.000
    O54     O    0.21246   0.96721   0.37538   1.000
    O55     O    0.71247   0.96722   0.37538   1.000
loop_
    _geom_bond_atom_site_label_1
    _geom_bond_atom_site_label_2
    _geom_bond_distance
    _geom_bond_site_symmetry_2
    _ccdc_geom_bond_type
    Zn1    O48       1.98762      .   S
    Zn1    O36       2.01775  1_554   S
    Zn2    O49       1.98762      .   S
    Zn2    O14       2.01775  1_554   S
    Zn6    O18       2.02126      .   S
    Zn6    O45       2.03681  1_544   S
    Zn5    O17       2.02128      .   S
    Zn5    O44       2.03681  1_544   S
    O20    C23       1.25094  1_554   S
    O19    C22       1.25094  1_554   S
    O17    C22       1.29943  1_554   S
    O18    C23       1.29942  1_554   S
    O50    C28       1.25097  1_554   S
    O51    C29       1.25097  1_554   S
    O48    C28       1.29937  1_554   S
    O49    C29       1.29937  1_554   S
    O54    C30       1.25491      .   S
    O55    C31       1.25490      .   S
    O38    C24       1.25533      .   S
    O39    C25       1.25491      .   S
    C31    O53       1.29823  1_565   S
    C30    O52       1.29823  1_565   S
    C24    O21       1.29848      .   S
    C25    O37       1.29848      .   S
    O52    Zn3       2.03820  1_545   S
    O53    Zn4       2.03819  1_545   S
    O21    Zn7       2.03794      .   S
    O37    Zn0       2.03794      .   S
    C10    O34       1.25098      .   S
    C10    O32       1.29967      .   S
    C11    O35       1.25098      .   S
    C11    O33       1.29965      .   S
    C8     O42       1.25083      .   S
    C8     O40       1.29982      .   S
    C9     O43       1.25083      .   S
    C9     O41       1.29984      .   S
    Zn4    O33       1.98640      .   S
    Zn3    O32       1.98638      .   S
    Zn0    O41       1.98428      .   S
    Zn7    O40       1.98430      .   S
    O47    C27       1.25511      .   S
    O46    C26       1.25510      .   S
    O15    C12       1.25495      .   S
    O16    C13       1.25507      .   S
    C26    O44       1.29820  1_545   S
    C27    O45       1.29820  1_545   S
    C12    O36       1.29870      .   S
    C13    O14       1.29833      .   S
