# CIF file generated by openbabel 2.4.90, see http://openbabel.sf.net
data_I
_chemical_name_common ''
_cell_length_a 15.316
_cell_length_b 19.21
_cell_length_c 19.485
_cell_angle_alpha 89.964
_cell_angle_beta 90
_cell_angle_gamma 90.069
_space_group_name_H-M_alt 'P 1'
_space_group_name_Hall 'P 1'
loop_
    _symmetry_equiv_pos_as_xyz
    x,y,z
loop_
    _atom_site_label
    _atom_site_type_symbol
    _atom_site_fract_x
    _atom_site_fract_y
    _atom_site_fract_z
    _atom_site_occupancy
    Zr0     Zr   0.25534   0.49988   0.50266   1.000
    Zr1     Zr   0.75536   0.49988   0.50266   1.000
    Zr2     Zr   0.24475   0.50255   0.00000   1.000
    Zr3     Zr   0.74477   0.50255   0.00000   1.000
    Zr4     Zr   0.24471   0.99963   0.49997   1.000
    Zr5     Zr   0.74473   0.99963   0.49997   1.000
    Zr6     Zr   0.25528   0.00000   0.00000   1.000
    Zr7     Zr   0.75529   0.00000   0.00000   1.000
    Zr8     Zr   0.31941   0.86821   0.49793   1.000
    Zr9     Zr   0.81942   0.86821   0.49793   1.000
    Zr10    Zr   0.13857   0.51701   0.89820   1.000
    Zr11    Zr   0.63858   0.51701   0.89822   1.000
    Zr12    Zr   0.17970   0.13385   0.99819   1.000
    Zr13    Zr   0.67972   0.13384   0.99819   1.000
    Zr14    Zr   0.36166   0.48513   0.39820   1.000
    Zr15    Zr   0.86167   0.48513   0.39820   1.000
    Zr16    Zr   0.18113   0.36812   0.49992   1.000
    Zr17    Zr   0.68114   0.36812   0.49992   1.000
    Zr18    Zr   0.36187   0.01724   0.89570   1.000
    Zr19    Zr   0.86189   0.01724   0.89570   1.000
    Zr20    Zr   0.32031   0.63337   0.99981   1.000
    Zr21    Zr   0.82033   0.63337   0.99981   1.000
    Zr22    Zr   0.13802   0.98513   0.39563   1.000
    Zr23    Zr   0.63804   0.98513   0.39563   1.000
    Zr24    Zr   0.34362   0.93289   0.50267   1.000
    Zr25    Zr   0.84364   0.93289   0.50267   1.000
    Zr26    Zr   0.24200   0.84765   0.50142   1.000
    Zr27    Zr   0.74202   0.84765   0.50142   1.000
    Zr28    Zr   0.12255   0.49973   0.96141   1.000
    Zr29    Zr   0.62256   0.49973   0.96141   1.000
    Zr30    Zr   0.21327   0.53449   0.87805   1.000
    Zr31    Zr   0.71328   0.53449   0.87805   1.000
    Zr32    Zr   0.15587   0.06906   0.00262   1.000
    Zr33    Zr   0.65588   0.06906   0.00262   1.000
    Zr34    Zr   0.25695   0.15469   0.00214   1.000
    Zr35    Zr   0.75697   0.15469   0.00213   1.000
    Zr36    Zr   0.37748   0.50296   0.46126   1.000
    Zr37    Zr   0.87749   0.50296   0.46126   1.000
    Zr38    Zr   0.28708   0.46732   0.37800   1.000
    Zr39    Zr   0.78710   0.46732   0.37807   1.000
    Zr40    Zr   0.15689   0.43269   0.50549   1.000
    Zr41    Zr   0.65691   0.43269   0.50549   1.000
    Zr42    Zr   0.25851   0.34762   0.50300   1.000
    Zr43    Zr   0.75853   0.34762   0.50300   1.000
    Zr44    Zr   0.37755   0.99986   0.95890   1.000
    Zr45    Zr   0.87757   0.99986   0.95890   1.000
    Zr46    Zr   0.28737   0.03499   0.87543   1.000
    Zr47    Zr   0.78738   0.03499   0.87543   1.000
    Zr48    Zr   0.34434   0.56876   0.00536   1.000
    Zr49    Zr   0.84436   0.56876   0.00536   1.000
    Zr50    Zr   0.24293   0.65387   0.00310   1.000
    Zr51    Zr   0.74295   0.65387   0.00310   1.000
    Zr52    Zr   0.12248   0.00284   0.45874   1.000
    Zr53    Zr   0.62250   0.00284   0.45874   1.000
    Zr54    Zr   0.21246   0.96721   0.37538   1.000
    Zr55    Zr   0.71247   0.96722   0.37538   1.000
    O56     O    0.29455   0.53566   0.00268   1.000
    O57     O    0.18365   0.50114   0.98070   1.000
    O58     O    0.79456   0.53566   0.00268   1.000
    O59     O    0.68367   0.50114   0.98070   1.000
    O60     O    0.70559   0.03453   0.00131   1.000
    O61     O    0.81643   0.99993   0.97945   1.000
    O62     O    0.20557   0.03453   0.00131   1.000
    O63     O    0.31642   0.99993   0.97945   1.000
    O64     O    0.71834   0.14427   0.00016   1.000
    O65     O    0.21833   0.14427   0.00016   1.000
    O66     O    0.16779   0.10145   0.00041   1.000
    O67     O    0.66780   0.10145   0.00041   1.000
    O68     O    0.28162   0.64362   0.00145   1.000
    O69     O    0.78164   0.64362   0.00145   1.000
    O70     O    0.33233   0.60106   0.00259   1.000
    O71     O    0.83234   0.60106   0.00259   1.000
    O72     O    0.17524   0.97617   0.38550   1.000
    O73     O    0.67525   0.97617   0.38550   1.000
    O74     O    0.32437   0.47622   0.38810   1.000
    O75     O    0.82438   0.47622   0.38814   1.000
    O76     O    0.63027   0.99398   0.42718   1.000
    O77     O    0.13025   0.99398   0.42718   1.000
    O78     O    0.36957   0.49404   0.42973   1.000
    O79     O    0.86958   0.49404   0.42973   1.000
    O80     O    0.18360   0.00123   0.47935   1.000
    O81     O    0.68361   0.00123   0.47935   1.000
    O82     O    0.31641   0.50142   0.48196   1.000
    O83     O    0.81642   0.50142   0.48196   1.000
    O84     O    0.28070   0.85793   0.49967   1.000
    O85     O    0.33151   0.90055   0.50030   1.000
    O86     O    0.78072   0.85793   0.49967   1.000
    O87     O    0.83153   0.90055   0.50030   1.000
    O88     O    0.21982   0.35787   0.50146   1.000
    O89     O    0.16901   0.40041   0.50270   1.000
    O90     O    0.71984   0.35787   0.50146   1.000
    O91     O    0.66903   0.40040   0.50270   1.000
    O92     O    0.79418   0.96626   0.50132   1.000
    O93     O    0.29417   0.96626   0.50132   1.000
    O94     O    0.70613   0.46628   0.50407   1.000
    O95     O    0.20612   0.46628   0.50407   1.000
    O96     O    0.82464   0.02612   0.88556   1.000
    O97     O    0.32462   0.02612   0.88556   1.000
    O98     O    0.17592   0.52575   0.88812   1.000
    O99     O    0.67593   0.52575   0.88813   1.000
    O100    O    0.36971   0.00855   0.92730   1.000
    O101    O    0.86973   0.00855   0.92730   1.000
    O102    O    0.13056   0.50837   0.92980   1.000
    O103    O    0.63057   0.50837   0.92981   1.000
    N104    N    0.40523   0.52665   0.72968   1.000
    O105    O    0.50331   0.52154   0.80139   1.000
    O106    O    0.33880   0.51799   0.64159   1.000
    N107    N    0.05633   0.70330   0.46267   1.000
    O108    O    0.95614   0.77291   0.47759   1.000
    O109    O    0.13925   0.62338   0.47463   1.000
    N110    N    0.94401   0.20353   0.46239   1.000
    O111    O    0.86100   0.12341   0.47330   1.000
    O112    O    0.04428   0.27300   0.47829   1.000
    N113    N    0.94250   0.29839   0.96273   1.000
    O114    O    0.85999   0.37854   0.97404   1.000
    O115    O    0.04280   0.22891   0.97770   1.000
    N116    N    0.90524   0.52665   0.72968   1.000
    O117    O    0.00331   0.52154   0.80138   1.000
    O118    O    0.83881   0.51799   0.64159   1.000
    N119    N    0.40433   0.97500   0.22774   1.000
    O120    O    0.33817   0.98345   0.13936   1.000
    O121    O    0.50255   0.98033   0.29916   1.000
    N122    N    0.90434   0.97500   0.22772   1.000
    O123    O    0.83818   0.98345   0.13935   1.000
    O124    O    0.00255   0.98033   0.29915   1.000
    N125    N    0.44401   0.20353   0.46240   1.000
    O126    O    0.54430   0.27299   0.47829   1.000
    O127    O    0.36100   0.12341   0.47329   1.000
    N128    N    0.55728   0.79815   0.96230   1.000
    O129    O    0.45707   0.72858   0.97816   1.000
    O130    O    0.63984   0.87784   0.97330   1.000
    N131    N    0.09513   0.47537   0.23018   1.000
    O132    O    0.99701   0.48049   0.30165   1.000
    O133    O    0.16149   0.48420   0.14121   1.000
    N134    N    0.55634   0.70330   0.46266   1.000
    O135    O    0.63926   0.62338   0.47462   1.000
    O136    O    0.45614   0.77291   0.47758   1.000
    N137    N    0.09539   0.02560   0.72760   1.000
    O138    O    0.99726   0.02111   0.79911   1.000
    O139    O    0.16163   0.01732   0.63926   1.000
    N140    N    0.05727   0.79815   0.96226   1.000
    O141    O    0.95708   0.72858   0.97813   1.000
    O142    O    0.13982   0.87784   0.97328   1.000
    N143    N    0.59514   0.47537   0.23018   1.000
    O144    O    0.66150   0.48420   0.14121   1.000
    O145    O    0.49701   0.48049   0.30165   1.000
    N146    N    0.44249   0.29839   0.96273   1.000
    O147    O    0.54280   0.22891   0.97770   1.000
    O148    O    0.35998   0.37854   0.97404   1.000
    N149    N    0.59540   0.02560   0.72760   1.000
    O150    O    0.49725   0.02111   0.79911   1.000
    O151    O    0.66164   0.01732   0.63926   1.000
loop_
    _geom_bond_atom_site_label_1
    _geom_bond_atom_site_label_2
    _geom_bond_distance
    _geom_bond_site_symmetry_2
    _ccdc_geom_bond_type
    Zr2    O56       0.99381      .   S
    Zr48   O56       0.99381      .   S
    Zr2    O57       1.00888  1_554   S
    Zr28   O57       1.00888      .   S
    Zr3    O58       0.99381      .   S
    Zr49   O58       0.99381      .   S
    Zr3    O59       1.00888  1_554   S
    Zr29   O59       1.00888      .   S
    Zr7    O60       1.01063      .   S
    Zr33   O60       1.01063      .   S
    Zr7    O61       1.01841  1_544   S
    Zr45   O61       1.01841      .   S
    Zr6    O62       1.01064      .   S
    Zr32   O62       1.01064      .   S
    Zr6    O63       1.01841  1_544   S
    Zr44   O63       1.01841      .   S
    Zr35   O64       0.62547      .   S
    Zr13   O64       0.62547  1_556   S
    Zr34   O65       0.62547      .   S
    Zr12   O65       0.62547  1_556   S
    Zr32   O66       0.64971      .   S
    Zr12   O66       0.64971  1_556   S
    Zr33   O67       0.64971      .   S
    Zr13   O67       0.64971  1_556   S
    Zr50   O68       0.62548      .   S
    Zr20   O68       0.62548  1_556   S
    Zr51   O69       0.62548      .   S
    Zr21   O69       0.62548  1_556   S
    Zr48   O70       0.64968      .   S
    Zr20   O70       0.64968  1_556   S
    Zr49   O71       0.64969      .   S
    Zr21   O71       0.64969  1_556   S
    Zr54   O72       0.62746      .   S
    Zr22   O72       0.62746      .   S
    Zr55   O73       0.62745      .   S
    Zr23   O73       0.62745      .   S
    Zr38   O74       0.62767      .   S
    Zr14   O74       0.62767      .   S
    Zr39   O75       0.62745      .   S
    Zr15   O75       0.62745      .   S
    Zr23   O76       0.64912      .   S
    Zr53   O76       0.64912  1_545   S
    Zr22   O77       0.64911      .   S
    Zr52   O77       0.64911  1_545   S
    Zr14   O78       0.64924      .   S
    Zr36   O78       0.64924      .   S
    Zr15   O79       0.64924      .   S
    Zr37   O79       0.64924      .   S
    Zr52   O80       1.01910      .   S
    Zr4    O80       1.01910  1_565   S
    Zr53   O81       1.01909      .   S
    Zr5    O81       1.01909  1_565   S
    Zr36   O82       1.01897      .   S
    Zr0    O82       1.01897      .   S
    Zr37   O83       1.01897      .   S
    Zr1    O83       1.01897      .   S
    Zr8    O84       0.62549      .   S
    Zr26   O84       0.62549      .   S
    Zr8    O85       0.64983      .   S
    Zr24   O85       0.64983      .   S
    Zr9    O86       0.62549      .   S
    Zr27   O86       0.62549      .   S
    Zr9    O87       0.64982      .   S
    Zr25   O87       0.64982      .   S
    Zr16   O88       0.62542      .   S
    Zr42   O88       0.62542      .   S
    Zr16   O89       0.64991      .   S
    Zr40   O89       0.64991      .   S
    Zr17   O90       0.62541      .   S
    Zr43   O90       0.62541      .   S
    Zr17   O91       0.64992      .   S
    Zr41   O91       0.64992      .   S
    Zr5    O92       0.99320      .   S
    Zr25   O92       0.99320      .   S
    Zr4    O93       0.99319      .   S
    Zr24   O93       0.99319      .   S
    Zr1    O94       0.99214      .   S
    Zr41   O94       0.99214      .   S
    Zr0    O95       0.99215      .   S
    Zr40   O95       0.99215      .   S
    Zr47   O96       0.62756      .   S
    Zr19   O96       0.62756      .   S
    Zr46   O97       0.62755      .   S
    Zr18   O97       0.62755      .   S
    Zr30   O98       0.62747      .   S
    Zr10   O98       0.62747      .   S
    Zr31   O99       0.62753      .   S
    Zr11   O99       0.62753      .   S
    Zr18   O100      0.64910      .   S
    Zr44   O100      0.64910  1_565   S
    Zr19   O101      0.64910      .   S
    Zr45   O101      0.64910  1_565   S
    Zr10   O102      0.64935      .   S
    Zr28   O102      0.64935      .   S
    Zr11   O103      0.64917      .   S
    Zr29   O103      0.64917      .   S
    N104   O105      2.05403      .   S
    Zr11   O105      2.80358      .   S
    N104   O106      2.00212      .   S
    Zr0    O106      3.01388      .   S
    N107   O108      2.05734  1_455   S
    Zr9    O108      2.81132      .   S
    N107   O109      2.00716      .   S
    Zr0    O109      3.01610      .   S
    N110   O111      2.00622      .   S
    Zr5    O111      3.01402  1_565   S
    N110   O112      2.05697  1_655   S
    Zr16   O112      2.81091      .   S
    N113   O114      2.00538      .   S
    Zr3    O114      3.00949  1_554   S
    N113   O115      2.05691  1_655   S
    Zr12   O115      2.81055      .   S
    N116   O117      2.05383  1_655   S
    Zr10   O117      2.80326      .   S
    N116   O118      2.00209      .   S
    Zr1    O118      3.01385      .   S
    N119   O120      2.00465      .   S
    Zr6    O120      3.01436  1_545   S
    N119   O121      2.05186      .   S
    Zr23   O121      2.80139      .   S
    N122   O123      2.00449      .   S
    Zr7    O123      3.01420  1_545   S
    N122   O124      2.05183  1_655   S
    Zr22   O124      2.80136      .   S
    N125   O126      2.05701      .   S
    Zr17   O126      2.81095      .   S
    N125   O127      2.00630      .   S
    Zr4    O127      3.01418  1_565   S
    N128   O129      2.05704      .   S
    Zr20   O129      2.81080      .   S
    N128   O130      1.99599      .   S
    Zr7    O130      2.98270  1_544   S
    N131   O132      2.05127  1_455   S
    Zr15   O132      2.80085      .   S
    N131   O133      2.01645      .   S
    Zr2    O133      3.05277      .   S
    N134   O135      2.00722      .   S
    Zr1    O135      3.01616      .   S
    N134   O136      2.05747      .   S
    Zr8    O136      2.81145      .   S
    N137   O138      2.05123  1_455   S
    Zr19   O138      2.80099      .   S
    N137   O139      2.00467      .   S
    Zr4    O139      3.01703  1_565   S
    N140   O141      2.05697  1_455   S
    Zr21   O141      2.81075      .   S
    N140   O142      1.99599      .   S
    Zr6    O142      2.98273  1_544   S
    N143   O144      2.01647      .   S
    Zr3    O144      3.05279      .   S
    N143   O145      2.05140      .   S
    Zr14   O145      2.80099      .   S
    N146   O147      2.05703      .   S
    Zr13   O147      2.81067      .   S
    N146   O148      2.00542      .   S
    Zr2    O148      3.00953  1_554   S
    N149   O150      2.05134      .   S
    Zr18   O150      2.80110      .   S
    N149   O151      2.00471      .   S
    Zr5    O151      3.01707  1_565   S
