# CIF file generated by openbabel 2.4.90, see http://openbabel.sf.net
data_I
_chemical_name_common ''
_cell_length_a 16.243
_cell_length_b 16.245
_cell_length_c 23.175
_cell_angle_alpha 73.291
_cell_angle_beta 73.07
_cell_angle_gamma 67.44
_space_group_name_H-M_alt 'P 1'
_space_group_name_Hall 'P 1'
loop_
    _symmetry_equiv_pos_as_xyz
    x,y,z
loop_
    _atom_site_label
    _atom_site_type_symbol
    _atom_site_fract_x
    _atom_site_fract_y
    _atom_site_fract_z
    _atom_site_occupancy
    N0      N    0.00002   0.99961   0.49997   1.000
    N1      N    0.36735   0.30289   0.69646   1.000
    N2      N    0.99966   0.99998   0.99998   1.000
    N3      N    0.69652   0.63147   0.80435   1.000
    N4      N    0.30357   0.36849   0.19556   1.000
    N5      N    0.63270   0.69705   0.30348   1.000
    Zr6     Zr   0.50002   0.99997   0.99997   1.000
    O7      O    0.66369   0.99904   0.99622   1.000
    O8      O    0.33617   0.00091   0.00373   1.000
    Zr9     Zr   0.00005   0.49998   0.49995   1.000
    O10     O    0.00098   0.33618   0.50359   1.000
    O11     O    0.99910   0.66359   0.49632   1.000
    O12     O    0.55501   0.89391   0.94613   1.000
    O13     O    0.44505   0.10603   0.05380   1.000
    O14     O    0.53399   0.91360   0.08653   1.000
    O15     O    0.46606   0.08634   0.91340   1.000
    O16     O    0.91330   0.53382   0.58667   1.000
    O17     O    0.08681   0.46615   0.41324   1.000
    O18     O    0.89443   0.55507   0.44578   1.000
    O19     O    0.10565   0.44487   0.55414   1.000
loop_
    _geom_bond_atom_site_label_1
    _geom_bond_atom_site_label_2
    _geom_bond_distance
    _geom_bond_site_symmetry_2
    _ccdc_geom_bond_type
    Zr6    O7        2.62872      .   S
    N2     O7        5.48911      .   S
    Zr6    O8        2.63162  1_566   S
    N2     O8        5.49782  1_666   S
    Zr9    O10       2.63215      .   S
    N0     O10       5.49847  1_565   S
    Zr9    O11       2.62909  1_455   S
    N0     O11       5.48933  1_455   S
    Zr6    O12       2.17475      .   S
    N3     O12       5.51297      .   S
    Zr6    O13       2.17469  1_566   S
    N4     O13       5.51291      .   S
    Zr6    O14       2.17480  1_556   S
    N5     O14       5.51555      .   S
    Zr6    O15       2.17479  1_565   S
    N1     O15       5.51548      .   S
    Zr9    O16       2.17213  1_455   S
    N3     O16       5.50775      .   S
    Zr9    O17       2.17202      .   S
    N4     O17       5.50757      .   S
    Zr9    O18       2.17957  1_455   S
    N5     O18       5.52585      .   S
    Zr9    O19       2.17960      .   S
    N1     O19       5.52592      .   S
