# CIF file generated by openbabel 2.4.90, see http://openbabel.sf.net
data_I
_chemical_name_common ''
_cell_length_a 16.243
_cell_length_b 16.245
_cell_length_c 23.175
_cell_angle_alpha 73.291
_cell_angle_beta 73.07
_cell_angle_gamma 67.44
_space_group_name_H-M_alt 'P 1'
_space_group_name_Hall 'P 1'
loop_
    _symmetry_equiv_pos_as_xyz
    x,y,z
loop_
    _atom_site_label
    _atom_site_type_symbol
    _atom_site_fract_x
    _atom_site_fract_y
    _atom_site_fract_z
    _atom_site_occupancy
    N0      N    0.00002   0.99961   0.49997   1.000
    N1      N    0.36735   0.30289   0.69646   1.000
    N2      N    0.99966   0.99998   0.99998   1.000
    N3      N    0.69652   0.63147   0.80435   1.000
    N4      N    0.30357   0.36849   0.19556   1.000
    N5      N    0.63270   0.69705   0.30348   1.000
    Zr6     Zr   0.50002   0.99997   0.99997   1.000
    O7      O    0.66369   0.99904   0.99622   1.000
    O8      O    0.57558   0.89280   0.94328   1.000
    O9      O    0.46563   0.10494   0.05094   1.000
    O10     O    0.55461   0.91236   0.08364   1.000
    O11     O    0.48669   0.08508   0.91051   1.000
    O12     O    0.33617   0.00091   0.00373   1.000
    O13     O    0.53443   0.89502   0.94897   1.000
    O14     O    0.42447   0.10713   0.05666   1.000
    O15     O    0.51337   0.91483   0.08942   1.000
    O16     O    0.44544   0.08759   0.91630   1.000
    Zr17    Zr   0.00005   0.49998   0.49995   1.000
    O18     O    0.08805   0.44556   0.41598   1.000
    O19     O    0.00098   0.33618   0.50359   1.000
    O20     O    0.91464   0.51320   0.58944   1.000
    O21     O    0.89555   0.53452   0.44852   1.000
    O22     O    0.10684   0.42430   0.55681   1.000
    O23     O    0.99910   0.66359   0.49632   1.000
    O24     O    0.91196   0.55443   0.58389   1.000
    O25     O    0.08556   0.48673   0.41049   1.000
    O26     O    0.89332   0.57562   0.44303   1.000
    O27     O    0.10446   0.46543   0.55146   1.000
loop_
    _geom_bond_atom_site_label_1
    _geom_bond_atom_site_label_2
    _geom_bond_distance
    _geom_bond_site_symmetry_2
    _ccdc_geom_bond_type
    Zr6    O7        2.62872      .   S
    N2     O7        5.48911      .   S
    Zr6    O8        2.23591      .   S
    N3     O8        5.47972      .   S
    Zr6    O9        2.15835  1_566   S
    N4     O9        5.56396      .   S
    Zr6    O10       2.24015  1_556   S
    N5     O10       5.46918      .   S
    Zr6    O11       2.15422  1_565   S
    N1     O11       5.57931      .   S
    Zr6    O12       2.63162  1_566   S
    N2     O12       5.49782  1_666   S
    Zr6    O13       2.15849      .   S
    N3     O13       5.56396      .   S
    Zr6    O14       2.23592  1_566   S
    N4     O14       5.47960      .   S
    Zr6    O15       2.15417  1_556   S
    N5     O15       5.57942      .   S
    Zr6    O16       2.24009  1_565   S
    N1     O16       5.46916      .   S
    Zr17   O18       2.23849      .   S
    N4     O18       5.46044      .   S
    Zr17   O19       2.63215      .   S
    N0     O19       5.49847  1_565   S
    Zr17   O20       2.15033  1_455   S
    N3     O20       5.57238      .   S
    Zr17   O21       2.16322  1_455   S
    N5     O21       5.57693      .   S
    Zr17   O22       2.24065      .   S
    N1     O22       5.49272      .   S
    Zr17   O23       2.62909  1_455   S
    N0     O23       5.48933  1_455   S
    Zr17   O24       2.23866  1_455   S
    N3     O24       5.46061      .   S
    Zr17   O25       2.15028      .   S
    N4     O25       5.57220      .   S
    Zr17   O26       2.24071  1_455   S
    N5     O26       5.49246      .   S
    Zr17   O27       2.16335      .   S
    N1     O27       5.57681      .   S
