# CIF file generated by openbabel 2.4.90, see http://openbabel.sf.net
data_I
_chemical_name_common ''
_cell_length_a 16.243
_cell_length_b 16.245
_cell_length_c 23.175
_cell_angle_alpha 73.291
_cell_angle_beta 73.07
_cell_angle_gamma 67.44
_space_group_name_H-M_alt 'P 1'
_space_group_name_Hall 'P 1'
loop_
    _symmetry_equiv_pos_as_xyz
    x,y,z
loop_
    _atom_site_label
    _atom_site_type_symbol
    _atom_site_fract_x
    _atom_site_fract_y
    _atom_site_fract_z
    _atom_site_occupancy
    C0      C    0.99500   0.59048   0.48820   1.000
    C1      C    0.40940   0.00487   0.01223   1.000
    C2      C    0.00510   0.40947   0.51170   1.000
    C3      C    0.59065   0.99507   0.98771   1.000
    C4      C    0.22169   0.55279   0.56448   1.000
    C5      C    0.35622   0.50777   0.61367   1.000
    C6      C    0.37446   0.22729   0.64886   1.000
    C7      C    0.24034   0.27308   0.59988   1.000
    C8      C    0.59952   0.25207   0.69216   1.000
    C9      C    0.62031   0.14960   0.79507   1.000
    C10     C    0.33135   0.20898   0.85220   1.000
    C11     C    0.30947   0.31194   0.75086   1.000
    C12     C    0.09876   0.71119   0.40397   1.000
    C13     C    0.11637   0.85991   0.39972   1.000
    C14     C    0.90603   0.88440   0.56529   1.000
    C15     C    0.89886   0.73535   0.56210   1.000
    C16     C    0.07464   0.99092   0.44104   1.000
    C17     C    0.44723   0.77614   0.93780   1.000
    C18     C    0.49210   0.64136   0.88857   1.000
    C19     C    0.77305   0.62280   0.85235   1.000
    C20     C    0.72741   0.75730   0.90127   1.000
    C21     C    0.74804   0.39916   0.80730   1.000
    C22     C    0.84963   0.37995   0.70355   1.000
    C23     C    0.78831   0.66886   0.64874   1.000
    C24     C    0.68622   0.68919   0.75102   1.000
    C25     C    0.28759   0.90203   0.09646   1.000
    C26     C    0.13893   0.88447   0.10046   1.000
    C27     C    0.11624   0.09343   0.93489   1.000
    C28     C    0.26521   0.10055   0.93828   1.000
    C29     C    0.00000   0.92558   0.05880   1.000
    C30     C    0.77822   0.44716   0.43556   1.000
    C31     C    0.64370   0.49223   0.38635   1.000
    C32     C    0.62566   0.77266   0.35107   1.000
    C33     C    0.75987   0.72682   0.39997   1.000
    C34     C    0.40052   0.74787   0.30777   1.000
    C35     C    0.37975   0.85030   0.20480   1.000
    C36     C    0.66871   0.79100   0.14770   1.000
    C37     C    0.69057   0.68808   0.24912   1.000
    C38     C    0.90129   0.28882   0.59598   1.000
    C39     C    0.88365   0.14010   0.60026   1.000
    C40     C    0.09400   0.11552   0.43469   1.000
    C41     C    0.10118   0.26458   0.43782   1.000
    C42     C    0.92538   0.00000   0.55890   1.000
    C43     C    0.55281   0.22383   0.06206   1.000
    C44     C    0.50798   0.35859   0.11131   1.000
    C45     C    0.22703   0.37711   0.14762   1.000
    C46     C    0.27263   0.24262   0.09871   1.000
    C47     C    0.25215   0.60077   0.19262   1.000
    C48     C    0.15063   0.62000   0.29639   1.000
    C49     C    0.21166   0.33112   0.35115   1.000
    C50     C    0.31381   0.31076   0.24889   1.000
    C51     C    0.71245   0.09791   0.90349   1.000
    C52     C    0.86111   0.11549   0.89950   1.000
    C53     C    0.88378   0.90655   0.06508   1.000
    C54     C    0.73482   0.89941   0.06169   1.000
    C55     C    0.99138   0.07439   0.94117   1.000
    C56     C    0.14165   0.44274   0.55139   1.000
    C57     C    0.22257   0.41571   0.57975   1.000
    C58     C    0.25565   0.48181   0.58320   1.000
    C59     C    0.32992   0.45720   0.61040   1.000
    C60     C    0.37149   0.36566   0.63432   1.000
    C61     C    0.34046   0.29847   0.63049   1.000
    C62     C    0.26599   0.32396   0.60340   1.000
    C63     C    0.45384   0.28640   0.71540   1.000
    C64     C    0.54148   0.24159   0.72775   1.000
    C65     C    0.55259   0.18519   0.78478   1.000
    C66     C    0.47718   0.17188   0.82992   1.000
    C67     C    0.38997   0.21810   0.81685   1.000
    C68     C    0.37755   0.27560   0.76031   1.000
    C69     C    0.48915   0.10952   0.89076   1.000
    C70     C    0.05755   0.75295   0.43820   1.000
    C71     C    0.06667   0.83524   0.43646   1.000
    C72     C    0.01244   0.88612   0.48214   1.000
    C73     C    0.95022   0.84945   0.52800   1.000
    C74     C    0.94503   0.76687   0.52693   1.000
    C75     C    0.02335   0.97207   0.47973   1.000
    C76     C    0.55745   0.85681   0.94980   1.000
    C77     C    0.58453   0.77530   0.92184   1.000
    C78     C    0.51829   0.74203   0.91888   1.000
    C79     C    0.54280   0.66765   0.89163   1.000
    C80     C    0.63442   0.62602   0.86730   1.000
    C81     C    0.70180   0.65695   0.87095   1.000
    C82     C    0.67640   0.73158   0.89805   1.000
    C83     C    0.71286   0.54473   0.78530   1.000
    C84     C    0.75787   0.45755   0.77200   1.000
    C85     C    0.81379   0.44730   0.71456   1.000
    C86     C    0.82634   0.52315   0.66987   1.000
    C87     C    0.77979   0.60992   0.68382   1.000
    C88     C    0.72277   0.62146   0.74084   1.000
    C89     C    0.88862   0.51201   0.60868   1.000
    C90     C    0.24626   0.94294   0.06215   1.000
    C91     C    0.16398   0.93386   0.06376   1.000
    C92     C    0.11363   0.98768   0.01800   1.000
    C93     C    0.15077   0.04955   0.97204   1.000
    C94     C    0.23330   0.05472   0.97343   1.000
    C95     C    0.02772   0.97675   0.02025   1.000
    C96     C    0.85842   0.55709   0.44857   1.000
    C97     C    0.77751   0.58420   0.42018   1.000
    C98     C    0.74430   0.51815   0.41682   1.000
    C99     C    0.67006   0.54278   0.38959   1.000
    C100    C    0.62854   0.63432   0.36564   1.000
    C101    C    0.65964   0.70148   0.36944   1.000
    C102    C    0.73413   0.67596   0.39652   1.000
    C103    C    0.54619   0.71359   0.28454   1.000
    C104    C    0.45857   0.75836   0.27219   1.000
    C105    C    0.44746   0.81475   0.21515   1.000
    C106    C    0.52289   0.82806   0.17002   1.000
    C107    C    0.61008   0.78188   0.18311   1.000
    C108    C    0.62250   0.72440   0.23965   1.000
    C109    C    0.51094   0.89040   0.10916   1.000
    C110    C    0.94249   0.24704   0.56175   1.000
    C111    C    0.93336   0.16474   0.56351   1.000
    C112    C    0.98759   0.11385   0.51785   1.000
    C113    C    0.04981   0.15050   0.47178   1.000
    C114    C    0.05501   0.23307   0.47300   1.000
    C115    C    0.97667   0.02789   0.52026   1.000
    C116    C    0.44257   0.14313   0.05012   1.000
    C117    C    0.41551   0.22466   0.07805   1.000
    C118    C    0.48176   0.25791   0.08102   1.000
    C119    C    0.45727   0.33230   0.10826   1.000
    C120    C    0.36566   0.37391   0.13259   1.000
    C121    C    0.29826   0.34297   0.12900   1.000
    C122    C    0.32365   0.26833   0.10192   1.000
    C123    C    0.28725   0.45520   0.21461   1.000
    C124    C    0.24228   0.54239   0.22787   1.000
    C125    C    0.18644   0.55265   0.28538   1.000
    C126    C    0.17378   0.47681   0.33004   1.000
    C127    C    0.22027   0.39005   0.31609   1.000
    C128    C    0.27727   0.37849   0.25907   1.000
    C129    C    0.11150   0.48802   0.39122   1.000
    C130    C    0.75378   0.05701   0.93781   1.000
    C131    C    0.83606   0.06610   0.93620   1.000
    C132    C    0.88640   0.01229   0.98196   1.000
    C133    C    0.84926   0.95042   0.02793   1.000
    C134    C    0.76673   0.94524   0.02650   1.000
    C135    C    0.97230   0.02323   0.97972   1.000
    C136    C    0.99754   0.71911   0.48260   1.000
    C137    C    0.28059   0.00257   0.01776   1.000
    C138    C    0.00250   0.28086   0.51731   1.000
    C139    C    0.71945   0.99738   0.98219   1.000
    C140    C    0.10579   0.52725   0.53080   1.000
    C141    C    0.11474   0.37926   0.55010   1.000
    C142    C    0.44779   0.34391   0.65867   1.000
    C143    C    0.56806   0.07996   0.90355   1.000
    C144    C    0.41929   0.09023   0.92538   1.000
    C145    C    0.47288   0.89246   0.97095   1.000
    C146    C    0.62090   0.88456   0.94999   1.000
    C147    C    0.65616   0.54992   0.84260   1.000
    C148    C    0.91879   0.43331   0.59533   1.000
    C149    C    0.90745   0.58213   0.57445   1.000
    C150    C    0.89368   0.47266   0.46970   1.000
    C151    C    0.88595   0.62043   0.44927   1.000
    C152    C    0.55223   0.65610   0.34129   1.000
    C153    C    0.43208   0.91983   0.09631   1.000
    C154    C    0.58076   0.90982   0.07460   1.000
    C155    C    0.52711   0.10763   0.02881   1.000
    C156    C    0.37913   0.11530   0.05004   1.000
    C157    C    0.34395   0.45000   0.15732   1.000
    C158    C    0.08217   0.56648   0.40482   1.000
    C159    C    0.09192   0.41815   0.42523   1.000
    O160    O    0.34499   0.00372   0.01500   1.000
    O161    O    0.39426   0.06008   0.03114   1.000
    O162    O    0.42074   0.96235   0.05427   1.000
    O163    O    0.41434   0.04755   0.96881   1.000
    O164    O    0.44114   0.94866   0.99159   1.000
    O165    O    0.26342   0.97276   0.03996   1.000
    O166    O    0.25694   0.02865   0.99560   1.000
    O167    O    0.07068   0.98221   0.01912   1.000
    O168    O    0.13881   0.96077   0.04088   1.000
    O169    O    0.13220   0.01862   0.99502   1.000
    O170    O    0.01386   0.95116   0.03953   1.000
    O171    O    0.00001   0.99999   0.99999   1.000
    O172    O    0.80800   0.94783   0.02722   1.000
    O173    O    0.75078   0.92233   0.04410   1.000
    O174    O    0.74309   0.97131   0.00435   1.000
    O175    O    0.86652   0.92848   0.04650   1.000
    O176    O    0.86783   0.98135   0.00495   1.000
    O177    O    0.48484   0.12538   0.03947   1.000
    O178    O    0.55888   0.05135   0.00826   1.000
    O179    O    0.41085   0.12922   0.05008   1.000
    O180    O    0.42904   0.18390   0.06409   1.000
    O181    O    0.51728   0.24087   0.07154   1.000
    O182    O    0.20512   0.93840   0.06296   1.000
    O183    O    0.26693   0.92249   0.07931   1.000
    O184    O    0.15145   0.90917   0.08211   1.000
    O185    O    0.54585   0.90011   0.09188   1.000
    O186    O    0.58571   0.95244   0.03116   1.000
    O187    O    0.44863   0.24129   0.07954   1.000
    O188    O    0.36958   0.24650   0.08998   1.000
    O189    O    0.46951   0.29511   0.09464   1.000
    O190    O    0.47151   0.90512   0.10274   1.000
    O191    O    0.29814   0.25547   0.10032   1.000
    O192    O    0.31096   0.30565   0.11546   1.000
    O193    O    0.48262   0.34545   0.10979   1.000
    O194    O    0.41146   0.35310   0.12043   1.000
    O195    O    0.51691   0.85923   0.13959   1.000
    O196    O    0.33196   0.35844   0.13079   1.000
    O197    O    0.26264   0.36004   0.13831   1.000
    O198    O    0.35480   0.41195   0.14496   1.000
    O199    O    0.63940   0.78644   0.16540   1.000
    O200    O    0.31560   0.45260   0.18596   1.000
    O201    O    0.56649   0.80497   0.17656   1.000
    O202    O    0.48517   0.82141   0.19259   1.000
    O203    O    0.61629   0.75314   0.21138   1.000
    O204    O    0.24721   0.57158   0.21025   1.000
    O205    O    0.41361   0.83252   0.20998   1.000
    O206    O    0.26476   0.49880   0.22124   1.000
    O207    O    0.28226   0.41685   0.23684   1.000
    O208    O    0.45301   0.78655   0.24367   1.000
    O209    O    0.21436   0.54752   0.25663   1.000
    O210    O    0.65653   0.70624   0.24439   1.000
    O211    O    0.58435   0.71899   0.26210   1.000
    O212    O    0.29554   0.34462   0.25398   1.000
    O213    O    0.24877   0.38427   0.28758   1.000
    O214    O    0.50238   0.73597   0.27837   1.000
    O215    O    0.42954   0.75312   0.28998   1.000
    O216    O    0.54921   0.68484   0.31292   1.000
    O217    O    0.16853   0.58632   0.29089   1.000
    O218    O    0.18011   0.51473   0.30771   1.000
    O219    O    0.19703   0.43343   0.32307   1.000
    O220    O    0.21597   0.36058   0.33362   1.000
    O221    O    0.14264   0.48242   0.36063   1.000
    O222    O    0.59039   0.64521   0.35347   1.000
    O223    O    0.64265   0.73707   0.36026   1.000
    O224    O    0.64409   0.66790   0.36754   1.000
    O225    O    0.64930   0.58855   0.37761   1.000
    O226    O    0.69688   0.68872   0.38298   1.000
    O227    O    0.65688   0.51751   0.38797   1.000
    O228    O    0.70718   0.53046   0.40320   1.000
    O229    O    0.09684   0.52725   0.39802   1.000
    O230    O    0.10171   0.45308   0.40823   1.000
    O231    O    0.74700   0.70139   0.39825   1.000
    O232    O    0.75582   0.63008   0.40835   1.000
    O233    O    0.09152   0.84758   0.41809   1.000
    O234    O    0.07816   0.73207   0.42109   1.000
    O235    O    0.03858   0.57848   0.44651   1.000
    O236    O    0.76090   0.55118   0.41850   1.000
    O237    O    0.76126   0.48266   0.42619   1.000
    O238    O    0.81796   0.57065   0.43438   1.000
    O239    O    0.04851   0.41381   0.46847   1.000
    O240    O    0.07190   0.13301   0.45324   1.000
    O241    O    0.06211   0.79410   0.43733   1.000
    O242    O    0.03955   0.86068   0.45930   1.000
    O243    O    0.07809   0.24883   0.45541   1.000
    O244    O    0.02755   0.73603   0.46040   1.000
    O245    O    0.04899   0.98149   0.46038   1.000
    O246    O    0.87218   0.58876   0.44892   1.000
    O247    O    0.87605   0.51488   0.45914   1.000
    O248    O    0.94047   0.60546   0.46874   1.000
    O249    O    0.94939   0.44107   0.49070   1.000
    O250    O    0.05241   0.19179   0.47239   1.000
    O251    O    0.01870   0.13217   0.49482   1.000
    O252    O    0.02876   0.25697   0.49516   1.000
    O253    O    0.01789   0.92909   0.48094   1.000
    O254    O    0.00001   0.99998   0.49999   1.000
    O255    O    0.98133   0.86778   0.50507   1.000
    O256    O    0.99627   0.65479   0.48540   1.000
    O257    O    0.97129   0.74299   0.50477   1.000
    O258    O    0.05039   0.55887   0.50950   1.000
    O259    O    0.95123   0.58631   0.53133   1.000
    O260    O    0.00380   0.34517   0.51451   1.000
    O261    O    0.05992   0.39437   0.53090   1.000
    O262    O    0.96194   0.42139   0.55351   1.000
    O263    O    0.97249   0.26395   0.53953   1.000
    O264    O    0.98213   0.07087   0.51906   1.000
    O265    O    0.96048   0.13929   0.54068   1.000
    O266    O    0.95102   0.01395   0.53958   1.000
    O267    O    0.94763   0.80816   0.52747   1.000
    O268    O    0.92194   0.75111   0.54452   1.000
    O269    O    0.92813   0.86692   0.54665   1.000
    O270    O    0.12372   0.48500   0.54110   1.000
    O271    O    0.12819   0.41100   0.55075   1.000
    O272    O    0.18211   0.42923   0.56557   1.000
    O273    O    0.93793   0.20589   0.56263   1.000
    O274    O    0.92189   0.26793   0.57886   1.000
    O275    O    0.90851   0.15242   0.58188   1.000
    O276    O    0.23867   0.51730   0.57384   1.000
    O277    O    0.89804   0.54707   0.59157   1.000
    O278    O    0.23911   0.44876   0.58148   1.000
    O279    O    0.24428   0.36983   0.59158   1.000
    O280    O    0.29278   0.46950   0.59680   1.000
    O281    O    0.90371   0.47266   0.60201   1.000
    O282    O    0.25317   0.29852   0.60164   1.000
    O283    O    0.30323   0.31121   0.61694   1.000
    O284    O    0.85748   0.51758   0.63928   1.000
    O285    O    0.34307   0.48248   0.61204   1.000
    O286    O    0.35070   0.41143   0.62236   1.000
    O287    O    0.35597   0.33207   0.63240   1.000
    O288    O    0.35746   0.26288   0.63967   1.000
    O289    O    0.40964   0.35479   0.64650   1.000
    O290    O    0.78405   0.63939   0.66628   1.000
    O291    O    0.45081   0.31515   0.68704   1.000
    O292    O    0.80307   0.56654   0.67685   1.000
    O293    O    0.82007   0.48523   0.69222   1.000
    O294    O    0.75128   0.61569   0.71233   1.000
    O295    O    0.57050   0.24683   0.70996   1.000
    O296    O    0.83171   0.41363   0.70905   1.000
    O297    O    0.78583   0.45243   0.74328   1.000
    O298    O    0.49766   0.26400   0.72158   1.000
    O299    O    0.41569   0.28100   0.73786   1.000
    O300    O    0.54704   0.21339   0.75627   1.000
    O301    O    0.70450   0.65533   0.74593   1.000
    O302    O    0.71781   0.58310   0.76307   1.000
    O303    O    0.34351   0.29377   0.75559   1.000
    O304    O    0.38376   0.24685   0.78858   1.000
    O305    O    0.73537   0.50114   0.77865   1.000
    O306    O    0.75296   0.42835   0.78965   1.000
    O307    O    0.58645   0.16739   0.78993   1.000
    O308    O    0.51489   0.17854   0.80735   1.000
    O309    O    0.68451   0.54733   0.81395   1.000
    O310    O    0.43357   0.19499   0.82339   1.000
    O311    O    0.36066   0.21354   0.83453   1.000
    O312    O    0.48316   0.14070   0.86034   1.000
    O313    O    0.64529   0.58797   0.85495   1.000
    O314    O    0.73742   0.63988   0.86165   1.000
    O315    O    0.66811   0.64149   0.86913   1.000
    O316    O    0.58861   0.64684   0.87947   1.000
    O317    O    0.68910   0.69427   0.88450   1.000
    O318    O    0.51745   0.65450   0.89010   1.000
    O319    O    0.52860   0.09474   0.89715   1.000
    O320    O    0.45422   0.09987   0.90807   1.000
    O321    O    0.53055   0.70484   0.90526   1.000
    O322    O    0.70191   0.74444   0.89966   1.000
    O323    O    0.63046   0.75344   0.90995   1.000
    O324    O    0.84858   0.09079   0.91785   1.000
    O325    O    0.73312   0.07746   0.92065   1.000
    O326    O    0.57936   0.03751   0.94563   1.000
    O327    O    0.55141   0.75867   0.92036   1.000
    O328    O    0.48276   0.75908   0.92834   1.000
    O329    O    0.57099   0.81606   0.93582   1.000
    O330    O    0.13350   0.07149   0.95346   1.000
    O331    O    0.79492   0.06156   0.93701   1.000
    O332    O    0.86123   0.03920   0.95908   1.000
    O333    O    0.73662   0.02720   0.96000   1.000
    O334    O    0.24925   0.07764   0.95586   1.000
    O335    O    0.98184   0.04881   0.96045   1.000
    O336    O    0.58918   0.87068   0.94989   1.000
    O337    O    0.51516   0.87463   0.96038   1.000
    O338    O    0.60578   0.93981   0.96885   1.000
    O339    O    0.19203   0.05214   0.97273   1.000
    O340    O    0.92935   0.01776   0.98084   1.000
    O341    O    0.65505   0.99622   0.98495   1.000
    O342    O    0.00005   0.49998   0.49995   1.000
    O343    O    0.50002   0.99997   0.99997   1.000
loop_
    _geom_bond_atom_site_label_1
    _geom_bond_atom_site_label_2
    _geom_bond_distance
    _geom_bond_site_symmetry_2
    _ccdc_geom_bond_type
    C1     O160      1.03635      .   S
    C137   O160      1.03635      .   S
    C1     O161      1.02519      .   S
    C156   O161      1.02519      .   S
    C1     O162      1.03930  1_545   S
    C153   O162      1.03930      .   S
    C1     O163      1.04614  1_554   S
    C144   O163      1.04614      .   S
    C1     O164      1.03660  1_544   S
    C145   O164      1.03660      .   S
    C137   O165      0.67361  1_545   S
    C90    O165      0.67361      .   S
    C137   O166      0.67508  1_554   S
    C94    O166      0.67508      .   S
    C92    O167      0.72866      .   S
    C95    O167      0.72866      .   S
    C92    O168      0.70375      .   S
    C91    O168      0.70375      .   S
    C92    O169      0.70429  1_564   S
    C93    O169      0.70429      .   S
    C95    O170      0.57395      .   S
    C29    O170      0.57395      .   S
    C95    O171      0.67563  1_554   S
    C135   O171      0.67563  1_645   S
    C134   O172      0.69264      .   S
    C133   O172      0.69264      .   S
    C134   O173      0.54515      .   S
    C54    O173      0.54515      .   S
    C134   O174      0.67488      .   S
    C139   O174      0.67488  1_556   S
    C133   O175      0.54436      .   S
    C53    O175      0.54436      .   S
    C133   O176      0.70432      .   S
    C132   O176      0.70432  1_546   S
    C155   O177      0.63705      .   S
    C116   O177      0.63705      .   S
    C155   O178      1.03643      .   S
    C3     O178      1.03643  1_566   S
    C156   O179      0.63749      .   S
    C116   O179      0.63749      .   S
    C116   O180      0.74949      .   S
    C117   O180      0.74949      .   S
    C43    O181      0.54447      .   S
    C118   O181      0.54447      .   S
    C90    O182      0.69435      .   S
    C91    O182      0.69435      .   S
    C90    O183      0.54527      .   S
    C25    O183      0.54527      .   S
    C91    O184      0.54525      .   S
    C26    O184      0.54525      .   S
    C154   O185      0.63784      .   S
    C109   O185      0.63784      .   S
    C154   O186      1.04609      .   S
    C3     O186      1.04609  1_556   S
    C117   O187      0.70088      .   S
    C118   O187      0.70088      .   S
    C117   O188      0.70149      .   S
    C122   O188      0.70149      .   S
    C118   O189      0.69653      .   S
    C119   O189      0.69653      .   S
    C153   O190      0.63803      .   S
    C109   O190      0.63803      .   S
    C46    O191      0.54456      .   S
    C122   O191      0.54456      .   S
    C122   O192      0.69595      .   S
    C121   O192      0.69595      .   S
    C119   O193      0.54475      .   S
    C44    O193      0.54475      .   S
    C119   O194      0.69781      .   S
    C120   O194      0.69781      .   S
    C109   O195      0.74830      .   S
    C106   O195      0.74830      .   S
    C121   O196      0.69945      .   S
    C120   O196      0.69945      .   S
    C121   O197      0.54479      .   S
    C45    O197      0.54479      .   S
    C120   O198      0.69572      .   S
    C157   O198      0.69572      .   S
    C36    O199      0.54436      .   S
    C107   O199      0.54436      .   S
    C157   O200      0.69114      .   S
    C123   O200      0.69114      .   S
    C106   O201      0.70090      .   S
    C107   O201      0.70090      .   S
    C106   O202      0.70153      .   S
    C105   O202      0.70153      .   S
    C107   O203      0.69560      .   S
    C108   O203      0.69560      .   S
    C47    O204      0.54484      .   S
    C124   O204      0.54484      .   S
    C35    O205      0.54480      .   S
    C105   O205      0.54480      .   S
    C123   O206      0.69997      .   S
    C124   O206      0.69997      .   S
    C123   O207      0.70008      .   S
    C128   O207      0.70008      .   S
    C105   O208      0.69550      .   S
    C104   O208      0.69550      .   S
    C124   O209      0.69542      .   S
    C125   O209      0.69542      .   S
    C108   O210      0.54433      .   S
    C37    O210      0.54433      .   S
    C108   O211      0.70004      .   S
    C103   O211      0.70004      .   S
    C50    O212      0.54432      .   S
    C128   O212      0.54432      .   S
    C128   O213      0.69558      .   S
    C127   O213      0.69558      .   S
    C104   O214      0.70001      .   S
    C103   O214      0.70001      .   S
    C104   O215      0.54486      .   S
    C34    O215      0.54486      .   S
    C103   O216      0.69102      .   S
    C152   O216      0.69102      .   S
    C125   O217      0.54460      .   S
    C48    O217      0.54460      .   S
    C125   O218      0.70148      .   S
    C126   O218      0.70148      .   S
    C127   O219      0.70083      .   S
    C126   O219      0.70083      .   S
    C127   O220      0.54442      .   S
    C49    O220      0.54442      .   S
    C126   O221      0.74807      .   S
    C129   O221      0.74807      .   S
    C152   O222      0.69568      .   S
    C100   O222      0.69568      .   S
    C32    O223      0.54480      .   S
    C101   O223      0.54480      .   S
    C100   O224      0.69949      .   S
    C101   O224      0.69949      .   S
    C100   O225      0.69790      .   S
    C99    O225      0.69790      .   S
    C101   O226      0.69595      .   S
    C102   O226      0.69595      .   S
    C31    O227      0.54474      .   S
    C99    O227      0.54474      .   S
    C99    O228      0.69647      .   S
    C98    O228      0.69647      .   S
    C129   O229      0.63808      .   S
    C158   O229      0.63808      .   S
    C129   O230      0.63780      .   S
    C159   O230      0.63780      .   S
    C102   O231      0.54457      .   S
    C33    O231      0.54457      .   S
    C102   O232      0.70147      .   S
    C97    O232      0.70147      .   S
    C13    O233      0.54521      .   S
    C71    O233      0.54521      .   S
    C12    O234      0.54528      .   S
    C70    O234      0.54528      .   S
    C158   O235      1.03767      .   S
    C0     O235      1.03767  1_655   S
    C98    O236      0.70089      .   S
    C97    O236      0.70089      .   S
    C98    O237      0.54449      .   S
    C30    O237      0.54449      .   S
    C97    O238      0.74949      .   S
    C96    O238      0.74949      .   S
    C159   O239      1.04505      .   S
    C2     O239      1.04505      .   S
    C40    O240      0.54440      .   S
    C113   O240      0.54440      .   S
    C71    O241      0.69430      .   S
    C70    O241      0.69430      .   S
    C71    O242      0.70374      .   S
    C72    O242      0.70374      .   S
    C41    O243      0.54488      .   S
    C114   O243      0.54488      .   S
    C70    O244      0.67322      .   S
    C136   O244      0.67322  1_655   S
    C16    O245      0.54651      .   S
    C75    O245      0.54651      .   S
    C96    O246      0.63754      .   S
    C151   O246      0.63754      .   S
    C96    O247      0.63702      .   S
    C150   O247      0.63702      .   S
    C151   O248      1.02534      .   S
    C0     O248      1.02534      .   S
    C150   O249      1.03715      .   S
    C2     O249      1.03715  1_455   S
    C113   O250      0.69240      .   S
    C114   O250      0.69240      .   S
    C113   O251      0.70418      .   S
    C112   O251      0.70418  1_655   S
    C114   O252      0.67544      .   S
    C138   O252      0.67544      .   S
    C75    O253      0.72858      .   S
    C72    O253      0.72858      .   S
    C75    O254      0.67584      .   S
    C115   O254      0.67584  1_645   S
    C72    O255      0.70319  1_455   S
    C73    O255      0.70319      .   S
    C136   O256      1.03583      .   S
    C0     O256      1.03583      .   S
    C136   O257      0.67552      .   S
    C74    O257      0.67552      .   S
    C0     O258      1.03700  1_655   S
    C140   O258      1.03700      .   S
    C0     O259      1.04552      .   S
    C149   O259      1.04552      .   S
    C2     O260      1.03586      .   S
    C138   O260      1.03586      .   S
    C2     O261      1.02532      .   S
    C141   O261      1.02532      .   S
    C2     O262      1.03735  1_455   S
    C148   O262      1.03735      .   S
    C138   O263      0.67336  1_455   S
    C110   O263      0.67336      .   S
    C112   O264      0.72863      .   S
    C115   O264      0.72863      .   S
    C112   O265      0.70368      .   S
    C111   O265      0.70368      .   S
    C115   O266      0.57516      .   S
    C42    O266      0.57516      .   S
    C74    O267      0.69178      .   S
    C73    O267      0.69178      .   S
    C74    O268      0.54490      .   S
    C15    O268      0.54490      .   S
    C73    O269      0.54607      .   S
    C14    O269      0.54607      .   S
    C140   O270      0.63704      .   S
    C56    O270      0.63704      .   S
    C141   O271      0.63772      .   S
    C56    O271      0.63772      .   S
    C56    O272      0.74949      .   S
    C57    O272      0.74949      .   S
    C110   O273      0.69431      .   S
    C111   O273      0.69431      .   S
    C110   O274      0.54532      .   S
    C38    O274      0.54532      .   S
    C111   O275      0.54523      .   S
    C39    O275      0.54523      .   S
    C4     O276      0.54449      .   S
    C58    O276      0.54449      .   S
    C149   O277      0.63775      .   S
    C89    O277      0.63775      .   S
    C57    O278      0.70090      .   S
    C58    O278      0.70090      .   S
    C57    O279      0.70145      .   S
    C62    O279      0.70145      .   S
    C58    O280      0.69649      .   S
    C59    O280      0.69649      .   S
    C148   O281      0.63810      .   S
    C89    O281      0.63810      .   S
    C7     O282      0.54455      .   S
    C62    O282      0.54455      .   S
    C62    O283      0.69596      .   S
    C61    O283      0.69596      .   S
    C89    O284      0.74812      .   S
    C86    O284      0.74812      .   S
    C59    O285      0.54475      .   S
    C5     O285      0.54475      .   S
    C59    O286      0.69788      .   S
    C60    O286      0.69788      .   S
    C61    O287      0.69944      .   S
    C60    O287      0.69944      .   S
    C61    O288      0.54479      .   S
    C6     O288      0.54479      .   S
    C60    O289      0.69568      .   S
    C142   O289      0.69568      .   S
    C23    O290      0.54438      .   S
    C87    O290      0.54438      .   S
    C142   O291      0.69094      .   S
    C63    O291      0.69094      .   S
    C86    O292      0.70083      .   S
    C87    O292      0.70083      .   S
    C86    O293      0.70152      .   S
    C85    O293      0.70152      .   S
    C87    O294      0.69565      .   S
    C88    O294      0.69565      .   S
    C8     O295      0.54488      .   S
    C64    O295      0.54488      .   S
    C22    O296      0.54461      .   S
    C85    O296      0.54461      .   S
    C85    O297      0.69497      .   S
    C84    O297      0.69497      .   S
    C63    O298      0.70008      .   S
    C64    O298      0.70008      .   S
    C63    O299      0.70009      .   S
    C68    O299      0.70009      .   S
    C64    O300      0.69547      .   S
    C65    O300      0.69547      .   S
    C88    O301      0.54430      .   S
    C24    O301      0.54430      .   S
    C88    O302      0.70001      .   S
    C83    O302      0.70001      .   S
    C11    O303      0.54429      .   S
    C68    O303      0.54429      .   S
    C68    O304      0.69565      .   S
    C67    O304      0.69565      .   S
    C84    O305      0.70013      .   S
    C83    O305      0.70013      .   S
    C84    O306      0.54507      .   S
    C21    O306      0.54507      .   S
    C65    O307      0.54461      .   S
    C9     O307      0.54461      .   S
    C65    O308      0.70153      .   S
    C66    O308      0.70153      .   S
    C83    O309      0.69124      .   S
    C147   O309      0.69124      .   S
    C67    O310      0.70090      .   S
    C66    O310      0.70090      .   S
    C67    O311      0.54401      .   S
    C10    O311      0.54401      .   S
    C66    O312      0.74823      .   S
    C69    O312      0.74823      .   S
    C147   O313      0.69550      .   S
    C80    O313      0.69550      .   S
    C19    O314      0.54482      .   S
    C81    O314      0.54482      .   S
    C80    O315      0.69962      .   S
    C81    O315      0.69962      .   S
    C80    O316      0.69790      .   S
    C79    O316      0.69790      .   S
    C81    O317      0.69595      .   S
    C82    O317      0.69595      .   S
    C18    O318      0.54473      .   S
    C79    O318      0.54473      .   S
    C69    O319      0.63805      .   S
    C143   O319      0.63805      .   S
    C69    O320      0.63785      .   S
    C144   O320      0.63785      .   S
    C79    O321      0.69650      .   S
    C78    O321      0.69650      .   S
    C82    O322      0.54458      .   S
    C20    O322      0.54458      .   S
    C82    O323      0.70147      .   S
    C77    O323      0.70147      .   S
    C52    O324      0.54523      .   S
    C131   O324      0.54523      .   S
    C51    O325      0.54533      .   S
    C130   O325      0.54533      .   S
    C143   O326      1.03953      .   S
    C3     O326      1.03953  1_565   S
    C78    O327      0.70088      .   S
    C77    O327      0.70088      .   S
    C78    O328      0.54447      .   S
    C17    O328      0.54447      .   S
    C77    O329      0.74948      .   S
    C76    O329      0.74948      .   S
    C27    O330      0.54438      .   S
    C93    O330      0.54438      .   S
    C131   O331      0.69434      .   S
    C130   O331      0.69434      .   S
    C131   O332      0.70373      .   S
    C132   O332      0.70373      .   S
    C130   O333      0.67355      .   S
    C139   O333      0.67355  1_565   S
    C28    O334      0.54497      .   S
    C94    O334      0.54497      .   S
    C55    O335      0.54644      .   S
    C135   O335      0.54644      .   S
    C76    O336      0.63753      .   S
    C146   O336      0.63753      .   S
    C76    O337      0.63705      .   S
    C145   O337      0.63705      .   S
    C146   O338      1.02515      .   S
    C3     O338      1.02515      .   S
    C93    O339      0.69252      .   S
    C94    O339      0.69252      .   S
    C135   O340      0.72868      .   S
    C132   O340      0.72868      .   S
    C139   O341      1.03636      .   S
    C3     O341      1.03636      .   S
    C0     O342      1.39024  1_655   S
    C2     O342      1.39024      .   S
    C1     O343      1.39053  1_544   S
    C3     O343      1.39053      .   S
