# CIF file generated by openbabel 2.4.90, see http://openbabel.sf.net
data_I
_chemical_name_common ''
_cell_length_a 16.243
_cell_length_b 16.245
_cell_length_c 23.175
_cell_angle_alpha 73.291
_cell_angle_beta 73.07
_cell_angle_gamma 67.44
_space_group_name_H-M_alt 'P 1'
_space_group_name_Hall 'P 1'
loop_
    _symmetry_equiv_pos_as_xyz
    x,y,z
loop_
    _atom_site_label
    _atom_site_type_symbol
    _atom_site_fract_x
    _atom_site_fract_y
    _atom_site_fract_z
    _atom_site_occupancy
    Zr0     Zr   0.99500   0.59048   0.48820   1.000
    Zr1     Zr   0.40940   0.00487   0.01223   1.000
    Zr2     Zr   0.00510   0.40947   0.51170   1.000
    Zr3     Zr   0.59065   0.99507   0.98771   1.000
    O4      O    0.00005   0.49998   0.49995   1.000
    O5      O    0.50002   0.99997   0.99997   1.000
    N6      N    0.00002   0.99961   0.49997   1.000
    O7      O    0.99814   0.82720   0.49269   1.000
    O8      O    0.00191   0.17239   0.50724   1.000
    N9      N    0.36735   0.30289   0.69646   1.000
    O10     O    0.20887   0.43088   0.60298   1.000
    O11     O    0.21364   0.34863   0.61368   1.000
    O12     O    0.47335   0.17020   0.82104   1.000
    O13     O    0.39085   0.17522   0.83263   1.000
    N14     N    0.99966   0.99998   0.99998   1.000
    O15     O    0.17232   0.00185   0.00749   1.000
    O16     O    0.82735   0.99810   0.99247   1.000
    N17     N    0.69652   0.63147   0.80435   1.000
    O18     O    0.56883   0.79006   0.89797   1.000
    O19     O    0.65115   0.78564   0.88660   1.000
    O20     O    0.82923   0.52643   0.67893   1.000
    O21     O    0.82387   0.60889   0.66784   1.000
    N22     N    0.30357   0.36849   0.19556   1.000
    O23     O    0.43123   0.20992   0.10191   1.000
    O24     O    0.34892   0.21428   0.11335   1.000
    O25     O    0.17108   0.47348   0.32104   1.000
    O26     O    0.17604   0.39115   0.33201   1.000
    N27     N    0.63270   0.69705   0.30348   1.000
    O28     O    0.79105   0.56906   0.39709   1.000
    O29     O    0.78659   0.65125   0.38611   1.000
    O30     O    0.52672   0.82970   0.17888   1.000
    O31     O    0.60920   0.82475   0.16732   1.000
loop_
    _geom_bond_atom_site_label_1
    _geom_bond_atom_site_label_2
    _geom_bond_distance
    _geom_bond_site_symmetry_2
    _ccdc_geom_bond_type
    Zr0    O4        1.39024  1_655   S
    Zr2    O4        1.39024      .   S
    Zr1    O5        1.39053  1_544   S
    Zr3    O5        1.39053      .   S
    N6     O7        2.86598  1_455   S
    Zr0    O7        3.89678      .   S
    N6     O8        2.87204  1_565   S
    Zr2    O8        3.90288      .   S
    N9     O10       3.49196      .   S
    Zr0    O10       4.51348  1_655   S
    N9     O11       3.31859      .   S
    Zr2    O11       4.33425      .   S
    N9     O12       3.52363      .   S
    Zr3    O12       4.52226  1_565   S
    N9     O13       3.27670      .   S
    Zr1    O13       4.30582  1_554   S
    N14    O15       2.87224  1_666   S
    Zr1    O15       3.90347      .   S
    N14    O16       2.86645      .   S
    Zr3    O16       3.89769      .   S
    N17    O18       3.48430      .   S
    Zr1    O18       4.50334  1_544   S
    N17    O19       3.31060      .   S
    Zr3    O19       4.32538      .   S
    N17    O20       3.51951      .   S
    Zr2    O20       4.51801  1_455   S
    N17    O21       3.27050      .   S
    Zr0    O21       4.29948      .   S
    N22    O23       3.48441      .   S
    Zr3    O23       4.50303  1_566   S
    N22    O24       3.31050      .   S
    Zr1    O24       4.32546      .   S
    N22    O25       3.51953      .   S
    Zr0    O25       4.51778  1_655   S
    N22    O26       3.27040      .   S
    Zr2    O26       4.29922      .   S
    N27    O28       3.49242      .   S
    Zr2    O28       4.51300  1_455   S
    N27    O29       3.31804      .   S
    Zr0    O29       4.33465      .   S
    N27    O30       3.52376      .   S
    Zr1    O30       4.52222  1_545   S
    N27    O31       3.27668      .   S
    Zr3    O31       4.30588  1_556   S
