# CIF file generated by openbabel 2.4.90, see http://openbabel.sf.net
data_I
_chemical_name_common ''
_cell_length_a 14.364
_cell_length_b 12.417
_cell_length_c 20.761
_cell_angle_alpha 90
_cell_angle_beta 90
_cell_angle_gamma 90.051
_space_group_name_H-M_alt 'P 1'
_space_group_name_Hall 'P 1'
loop_
    _symmetry_equiv_pos_as_xyz
    x,y,z
loop_
    _atom_site_label
    _atom_site_type_symbol
    _atom_site_fract_x
    _atom_site_fract_y
    _atom_site_fract_z
    _atom_site_occupancy
    Zr0     Zr   0.12528   0.33380   0.24999   1.000
    Zr1     Zr   0.62533   0.33380   0.24999   1.000
    Zr2     Zr   0.12485   0.83402   0.74998   1.000
    Zr3     Zr   0.62468   0.83384   0.74998   1.000
    Zr4     Zr   0.37464   0.66623   0.74998   1.000
    Zr5     Zr   0.87469   0.66622   0.74998   1.000
    Zr6     Zr   0.37529   0.16618   0.24999   1.000
    Zr7     Zr   0.87512   0.16600   0.24999   1.000
    N8      N    0.24985   0.50008   0.49993   1.000
    O9      O    0.20303   0.43917   0.39659   1.000
    O10     O    0.29673   0.56098   0.60330   1.000
    N11     N    0.75012   0.49994   0.99990   1.000
    O12     O    0.70324   0.43904   0.10329   1.000
    O13     O    0.79694   0.56085   0.89657   1.000
    N14     N    0.75012   0.49994   0.50001   1.000
    O15     O    0.70324   0.43904   0.39665   1.000
    O16     O    0.79694   0.56085   0.60336   1.000
    N17     N    0.49998   0.99989   0.99998   1.000
    O18     O    0.45310   0.06086   0.10331   1.000
    O19     O    0.54686   0.93905   0.89661   1.000
    N20     N    0.24985   0.50008   0.00003   1.000
    O21     O    0.20303   0.43917   0.10338   1.000
    O22     O    0.29673   0.56098   0.89666   1.000
    N23     N    0.99998   0.99989   0.49997   1.000
    O24     O    0.95300   0.06073   0.39663   1.000
    O25     O    0.04697   0.93917   0.60323   1.000
    N26     N    0.49998   0.99989   0.49997   1.000
    O27     O    0.54686   0.93905   0.60332   1.000
    O28     O    0.45310   0.06086   0.39648   1.000
    N29     N    0.99998   0.99989   0.99998   1.000
    O30     O    0.95300   0.06073   0.10334   1.000
    O31     O    0.04697   0.93917   0.89663   1.000
    N32     N    0.44891   0.35040   0.24999   1.000
    O33     O    0.43051   0.30435   0.24999   1.000
    N34     N    0.94883   0.35013   0.24999   1.000
    O35     O    0.93040   0.30409   0.24999   1.000
    N36     N    0.19883   0.14967   0.24999   1.000
    O37     O    0.18044   0.19571   0.24999   1.000
    N38     N    0.80114   0.85035   0.74998   1.000
    O39     O    0.81953   0.80432   0.74998   1.000
    N40     N    0.30128   0.85043   0.74998   1.000
    O41     O    0.31962   0.80438   0.74998   1.000
    N42     N    0.05114   0.64990   0.74998   1.000
    O43     O    0.06957   0.69593   0.74998   1.000
    N44     N    0.55106   0.64962   0.74998   1.000
    O45     O    0.56946   0.69567   0.74998   1.000
    N46     N    0.69869   0.14960   0.24999   1.000
    O47     O    0.68035   0.19565   0.24999   1.000
loop_
    _geom_bond_atom_site_label_1
    _geom_bond_atom_site_label_2
    _geom_bond_distance
    _geom_bond_site_symmetry_2
    _ccdc_geom_bond_type
    N8     O9        2.37190      .   S
    Zr0    O9        3.49567      .   S
    N8     O10       2.37284      .   S
    Zr4    O10       3.49729      .   S
    N11    O12       2.37319  1_556   S
    Zr1    O12       3.49762      .   S
    N11    O13       2.37174      .   S
    Zr5    O13       3.49552      .   S
    N14    O15       2.37249      .   S
    Zr1    O15       3.49695      .   S
    N14    O16       2.37225      .   S
    Zr5    O16       3.49601      .   S
    N17    O18       2.37272  1_566   S
    Zr6    O18       3.49794      .   S
    N17    O19       2.37290      .   S
    Zr3    O19       3.49647      .   S
    N20    O21       2.37209      .   S
    Zr0    O21       3.49586      .   S
    N20    O22       2.37283  1_554   S
    Zr4    O22       3.49728      .   S
    N23    O24       2.37284  1_565   S
    Zr7    O24       3.49727      .   S
    N23    O25       2.37076  1_655   S
    Zr2    O25       3.49870      .   S
    N26    O27       2.37267      .   S
    Zr3    O27       3.49698      .   S
    N26    O28       2.37557  1_565   S
    Zr6    O28       3.49454      .   S
    N29    O30       2.37306  1_566   S
    Zr7    O30       3.49749      .   S
    N29    O31       2.37256  1_655   S
    Zr2    O31       3.49690      .   S
    N32    O33       0.62981      .   S
    Zr6    O33       1.88943      .   S
    N34    O35       0.62966      .   S
    Zr7    O35       1.88898      .   S
    N36    O37       0.62986      .   S
    Zr0    O37       1.88959      .   S
    N38    O39       0.62986      .   S
    Zr5    O39       1.88959      .   S
    N40    O41       0.62978      .   S
    Zr4    O41       1.88935      .   S
    N42    O43       0.62966      .   S
    Zr2    O43       1.88897      .   S
    N44    O45       0.62981      .   S
    Zr3    O45       1.88943      .   S
    N46    O47       0.62978      .   S
    Zr1    O47       1.88935      .   S
