# CIF file generated by openbabel 2.4.90, see http://openbabel.sf.net
data_I
_chemical_name_common ''
_cell_length_a 16.401
_cell_length_b 16.425
_cell_length_c 16.079
_cell_angle_alpha 90.014
_cell_angle_beta 89.992
_cell_angle_gamma 119.912
_space_group_name_H-M_alt 'P 1'
_space_group_name_Hall 'P 1'
loop_
    _symmetry_equiv_pos_as_xyz
    x,y,z
loop_
    _atom_site_label
    _atom_site_type_symbol
    _atom_site_fract_x
    _atom_site_fract_y
    _atom_site_fract_z
    _atom_site_occupancy
    N0      N    0.50000   0.00001   0.00000   1.000
    N1      N    0.50000   0.50001   0.99999   1.000
    N2      N    0.50000   0.00001   0.50001   1.000
    N3      N    0.50000   0.50001   0.50000   1.000
    N4      N    1.00000   0.50001   0.50001   1.000
    N5      N    1.00000   0.50001   0.00001   1.000
    Zr6     Zr   0.66654   0.33283   0.75001   1.000
    O7      O    0.59593   0.40355   0.85050   1.000
    O8      O    0.80775   0.40354   0.85052   1.000
    O9      O    0.80775   0.40351   0.64951   1.000
    O10     O    0.59594   0.40356   0.64949   1.000
    O11     O    0.59607   0.19190   0.64950   1.000
    O12     O    0.59604   0.19190   0.85051   1.000
    Zr13    Zr   0.33345   0.66719   0.25000   1.000
    O14     O    0.40393   0.80812   0.35051   1.000
    O15     O    0.19225   0.59649   0.14949   1.000
    O16     O    0.40406   0.59647   0.14950   1.000
    O17     O    0.40396   0.80812   0.14950   1.000
    O18     O    0.19224   0.59652   0.35051   1.000
    O19     O    0.40405   0.59647   0.35052   1.000
loop_
    _geom_bond_atom_site_label_1
    _geom_bond_atom_site_label_2
    _geom_bond_distance
    _geom_bond_site_symmetry_2
    _ccdc_geom_bond_type
    Zr6    O7        2.57709      .   S
    N1     O7        3.63957      .   S
    Zr6    O8        2.57719      .   S
    N5     O8        3.63969  1_554   S
    Zr6    O9        2.57709      .   S
    N4     O9        3.63970      .   S
    Zr6    O10       2.57791      .   S
    N3     O10       3.64041      .   S
    Zr6    O11       2.57603      .   S
    N2     O11       3.63851      .   S
    Zr6    O12       2.57652      .   S
    N0     O12       3.63922  1_554   S
    Zr13   O14       2.57605      .   S
    N2     O14       3.63858  1_545   S
    Zr13   O15       2.57716      .   S
    N5     O15       3.63965  1_655   S
    Zr13   O16       2.57726      .   S
    N1     O16       3.63975  1_556   S
    Zr13   O17       2.57655      .   S
    N0     O17       3.63918  1_545   S
    Zr13   O18       2.57712      .   S
    N4     O18       3.63973  1_655   S
    Zr13   O19       2.57781      .   S
    N3     O19       3.64041      .   S
