# CIF file generated by openbabel 2.4.90, see http://openbabel.sf.net
data_I
_chemical_name_common ''
_cell_length_a 16.401
_cell_length_b 16.425
_cell_length_c 16.079
_cell_angle_alpha 90.014
_cell_angle_beta 89.992
_cell_angle_gamma 119.912
_space_group_name_H-M_alt 'P 1'
_space_group_name_Hall 'P 1'
loop_
    _symmetry_equiv_pos_as_xyz
    x,y,z
loop_
    _atom_site_label
    _atom_site_type_symbol
    _atom_site_fract_x
    _atom_site_fract_y
    _atom_site_fract_z
    _atom_site_occupancy
    Zr0     Zr   0.73544   0.47076   0.75000   1.000
    Zr1     Zr   0.73584   0.26386   0.75000   1.000
    Zr2     Zr   0.52838   0.26398   0.75000   1.000
    Zr3     Zr   0.26455   0.52927   0.25002   1.000
    Zr4     Zr   0.26416   0.73616   0.24996   1.000
    Zr5     Zr   0.47162   0.73604   0.25002   1.000
    Zr6     Zr   0.56815   0.43083   0.86840   1.000
    Zr7     Zr   0.86273   0.43075   0.86846   1.000
    Zr8     Zr   0.56866   0.13705   0.86843   1.000
    Zr9     Zr   0.43181   0.56918   0.36845   1.000
    Zr10    Zr   0.13724   0.56942   0.36841   1.000
    Zr11    Zr   0.43117   0.86297   0.36840   1.000
    Zr12    Zr   0.13727   0.56927   0.13156   1.000
    Zr13    Zr   0.43185   0.56919   0.13160   1.000
    Zr14    Zr   0.43134   0.86298   0.13159   1.000
    Zr15    Zr   0.86275   0.43061   0.63161   1.000
    Zr16    Zr   0.56818   0.43085   0.63150   1.000
    Zr17    Zr   0.56883   0.13706   0.63160   1.000
    Zr18    Zr   0.65183   0.48443   0.84038   1.000
    Zr19    Zr   0.83322   0.34720   0.84047   1.000
    Zr20    Zr   0.51477   0.16691   0.84042   1.000
    Zr21    Zr   0.34813   0.51556   0.34041   1.000
    Zr22    Zr   0.16674   0.65294   0.34044   1.000
    Zr23    Zr   0.48504   0.83305   0.34040   1.000
    Zr24    Zr   0.16739   0.51567   0.15960   1.000
    Zr25    Zr   0.48580   0.65273   0.15958   1.000
    Zr26    Zr   0.34762   0.83327   0.15958   1.000
    Zr27    Zr   0.83258   0.48421   0.65966   1.000
    Zr28    Zr   0.51425   0.34732   0.65956   1.000
    Zr29    Zr   0.65251   0.16672   0.65961   1.000
    Zr30    Zr   0.34817   0.51559   0.15965   1.000
    Zr31    Zr   0.16678   0.65282   0.15955   1.000
    Zr32    Zr   0.48523   0.83311   0.15960   1.000
    Zr33    Zr   0.65187   0.48446   0.65961   1.000
    Zr34    Zr   0.83325   0.34709   0.65958   1.000
    Zr35    Zr   0.51496   0.16698   0.65962   1.000
    Zr36    Zr   0.83260   0.48436   0.84041   1.000
    Zr37    Zr   0.51420   0.34729   0.84044   1.000
    Zr38    Zr   0.65238   0.16675   0.84044   1.000
    Zr39    Zr   0.16741   0.51582   0.34036   1.000
    Zr40    Zr   0.48574   0.65270   0.34046   1.000
    Zr41    Zr   0.34748   0.83331   0.34041   1.000
    Zr42    Zr   0.66653   0.33281   0.75002   1.000
    Zr43    Zr   0.33347   0.66722   0.25000   1.000
    O44     O    0.15202   0.61105   0.14556   1.000
    O45     O    0.15233   0.54247   0.14558   1.000
    O46     O    0.38948   0.84812   0.14559   1.000
    O47     O    0.45828   0.84805   0.14560   1.000
    O48     O    0.45882   0.61096   0.14559   1.000
    O49     O    0.39001   0.54239   0.14562   1.000
    O50     O    0.21547   0.69449   0.20475   1.000
    O51     O    0.30589   0.78471   0.20477   1.000
    O52     O    0.47871   0.69439   0.20480   1.000
    O53     O    0.21597   0.52247   0.20481   1.000
    O54     O    0.47842   0.78458   0.20481   1.000
    O55     O    0.30636   0.52243   0.20483   1.000
    O56     O    0.30582   0.78474   0.29519   1.000
    O57     O    0.21545   0.69455   0.29520   1.000
    O58     O    0.40254   0.70163   0.25001   1.000
    O59     O    0.29901   0.59824   0.25001   1.000
    O60     O    0.47833   0.78455   0.29521   1.000
    O61     O    0.47868   0.69437   0.29524   1.000
    O62     O    0.21598   0.52254   0.29519   1.000
    O63     O    0.30634   0.52241   0.29522   1.000
    O64     O    0.15233   0.54262   0.35439   1.000
    O65     O    0.45810   0.84801   0.35440   1.000
    O66     O    0.38997   0.54237   0.35443   1.000
    O67     O    0.38933   0.84814   0.35441   1.000
    O68     O    0.15199   0.61118   0.35443   1.000
    O69     O    0.45878   0.61094   0.35446   1.000
    O70     O    0.54122   0.38909   0.64553   1.000
    O71     O    0.61003   0.45765   0.64555   1.000
    O72     O    0.61067   0.15189   0.64561   1.000
    O73     O    0.54189   0.15202   0.64561   1.000
    O74     O    0.84800   0.38885   0.64560   1.000
    O75     O    0.84767   0.45741   0.64564   1.000
    O76     O    0.52131   0.30565   0.70478   1.000
    O77     O    0.78454   0.30548   0.70479   1.000
    O78     O    0.69417   0.21529   0.70481   1.000
    O79     O    0.69366   0.47761   0.70481   1.000
    O80     O    0.52167   0.21548   0.70481   1.000
    O81     O    0.78401   0.47748   0.70483   1.000
    O82     O    0.59746   0.29839   0.75001   1.000
    O83     O    0.52158   0.21544   0.79521   1.000
    O84     O    0.52129   0.30564   0.79522   1.000
    O85     O    0.69411   0.21531   0.79522   1.000
    O86     O    0.78453   0.30553   0.79524   1.000
    O87     O    0.70099   0.40178   0.75001   1.000
    O88     O    0.69363   0.47759   0.79519   1.000
    O89     O    0.78402   0.47756   0.79521   1.000
    O90     O    0.60999   0.45763   0.85439   1.000
    O91     O    0.84767   0.45755   0.85444   1.000
    O92     O    0.54172   0.15198   0.85442   1.000
    O93     O    0.61052   0.15190   0.85443   1.000
    O94     O    0.54117   0.38906   0.85442   1.000
    O95     O    0.84797   0.38898   0.85447   1.000
    O96     O    0.70118   0.29834   0.75001   1.000
    O97     O    0.29881   0.70169   0.24998   1.000
    N98     N    0.50000   0.00001   0.00000   1.000
    O99     O    0.47446   0.94906   0.04899   1.000
    O100    O    0.52553   0.05097   0.95101   1.000
    N101    N    0.50000   0.50001   0.99999   1.000
    O102    O    0.52533   0.47428   0.95100   1.000
    O103    O    0.47467   0.52574   0.04899   1.000
    N104    N    0.50000   0.00001   0.50001   1.000
    O105    O    0.47440   0.94906   0.45101   1.000
    O106    O    0.52560   0.05097   0.54900   1.000
    N107    N    0.50000   0.50001   0.50000   1.000
    O108    O    0.47465   0.52574   0.45103   1.000
    O109    O    0.52534   0.47428   0.54897   1.000
    N110    N    1.00000   0.50001   0.50001   1.000
    O111    O    0.94896   0.47418   0.54900   1.000
    O112    O    0.05103   0.52584   0.45101   1.000
    N113    N    1.00000   0.50001   0.00001   1.000
    O114    O    0.05104   0.52578   0.04898   1.000
    O115    O    0.94895   0.47424   0.95104   1.000
loop_
    _geom_bond_atom_site_label_1
    _geom_bond_atom_site_label_2
    _geom_bond_distance
    _geom_bond_site_symmetry_2
    _ccdc_geom_bond_type
    Zr12   O44       0.64365      .   S
    Zr31   O44       0.64365      .   S
    Zr12   O45       0.64359      .   S
    Zr24   O45       0.64359      .   S
    Zr14   O46       0.64373      .   S
    Zr26   O46       0.64373      .   S
    Zr14   O47       0.64368      .   S
    Zr32   O47       0.64368      .   S
    Zr13   O48       0.64360      .   S
    Zr25   O48       0.64360      .   S
    Zr13   O49       0.64362      .   S
    Zr30   O49       0.64362      .   S
    Zr31   O50       1.04370      .   S
    Zr4    O50       1.04370      .   S
    Zr26   O51       1.04315      .   S
    Zr4    O51       1.04315      .   S
    Zr25   O52       1.04377      .   S
    Zr5    O52       1.04377      .   S
    Zr24   O53       1.04265      .   S
    Zr3    O53       1.04265      .   S
    Zr32   O54       1.04302      .   S
    Zr5    O54       1.04302      .   S
    Zr30   O55       1.04271      .   S
    Zr3    O55       1.04271      .   S
    Zr4    O56       1.04324      .   S
    Zr41   O56       1.04324      .   S
    Zr4    O57       1.04403      .   S
    Zr22   O57       1.04403      .   S
    Zr43   O58       0.98200      .   S
    Zr5    O58       0.98200      .   S
    Zr43   O59       0.98201      .   S
    Zr3    O59       0.98201      .   S
    Zr5    O60       1.04262      .   S
    Zr23   O60       1.04262      .   S
    Zr5    O61       1.04399      .   S
    Zr40   O61       1.04399      .   S
    Zr3    O62       1.04230      .   S
    Zr39   O62       1.04230      .   S
    Zr3    O63       1.04285      .   S
    Zr21   O63       1.04285      .   S
    Zr39   O64       0.64370      .   S
    Zr10   O64       0.64370      .   S
    Zr23   O65       0.64372      .   S
    Zr11   O65       0.64372      .   S
    Zr21   O66       0.64365      .   S
    Zr9    O66       0.64365      .   S
    Zr41   O67       0.64362      .   S
    Zr11   O67       0.64362      .   S
    Zr22   O68       0.64354      .   S
    Zr10   O68       0.64354      .   S
    Zr40   O69       0.64361      .   S
    Zr9    O69       0.64361      .   S
    Zr16   O70       0.64380      .   S
    Zr28   O70       0.64380      .   S
    Zr16   O71       0.64385      .   S
    Zr33   O71       0.64385      .   S
    Zr17   O72       0.64368      .   S
    Zr29   O72       0.64368      .   S
    Zr17   O73       0.64377      .   S
    Zr35   O73       0.64377      .   S
    Zr15   O74       0.64353      .   S
    Zr34   O74       0.64353      .   S
    Zr15   O75       0.64371      .   S
    Zr27   O75       0.64371      .   S
    Zr28   O76       1.04401      .   S
    Zr2    O76       1.04401      .   S
    Zr34   O77       1.04370      .   S
    Zr1    O77       1.04370      .   S
    Zr29   O78       1.04289      .   S
    Zr1    O78       1.04289      .   S
    Zr33   O79       1.04285      .   S
    Zr0    O79       1.04285      .   S
    Zr35   O80       1.04260      .   S
    Zr2    O80       1.04260      .   S
    Zr27   O81       1.04229      .   S
    Zr0    O81       1.04229      .   S
    Zr2    O82       0.98200      .   S
    Zr42   O82       0.98200      .   S
    Zr2    O83       1.04303      .   S
    Zr20   O83       1.04303      .   S
    Zr2    O84       1.04376      .   S
    Zr37   O84       1.04376      .   S
    Zr1    O85       1.04349      .   S
    Zr38   O85       1.04349      .   S
    Zr1    O86       1.04402      .   S
    Zr19   O86       1.04402      .   S
    Zr0    O87       0.98201      .   S
    Zr42   O87       0.98201      .   S
    Zr0    O88       1.04276      .   S
    Zr18   O88       1.04276      .   S
    Zr0    O89       1.04259      .   S
    Zr36   O89       1.04259      .   S
    Zr18   O90       0.64354      .   S
    Zr6    O90       0.64354      .   S
    Zr36   O91       0.64363      .   S
    Zr7    O91       0.64363      .   S
    Zr20   O92       0.64367      .   S
    Zr8    O92       0.64367      .   S
    Zr38   O93       0.64373      .   S
    Zr8    O93       0.64373      .   S
    Zr37   O94       0.64355      .   S
    Zr6    O94       0.64355      .   S
    Zr19   O95       0.64365      .   S
    Zr7    O95       0.64365      .   S
    Zr42   O96       0.98209      .   S
    Zr1    O96       0.98209      .   S
    Zr43   O97       0.98210      .   S
    Zr4    O97       0.98210      .   S
    N98    O99       1.07096  1_545   S
    Zr14   O99       1.80729      .   S
    N98    O100      1.07103  1_554   S
    Zr8    O100      1.80710      .   S
    N101   O102      1.07087      .   S
    Zr6    O102      1.80701      .   S
    N101   O103      1.07088  1_556   S
    Zr13   O103      1.80722      .   S
    N104   O105      1.07088  1_545   S
    Zr11   O105      1.80717      .   S
    N104   O106      1.07081      .   S
    Zr17   O106      1.80702      .   S
    N107   O108      1.07094      .   S
    Zr9    O108      1.80732      .   S
    N107   O109      1.07081      .   S
    Zr16   O109      1.80679      .   S
    N110   O111      1.07098      .   S
    Zr15   O111      1.80731      .   S
    N110   O112      1.07098  1_655   S
    Zr10   O112      1.80730      .   S
    N113   O114      1.07082  1_655   S
    Zr12   O114      1.80712      .   S
    N113   O115      1.07082  1_554   S
    Zr7    O115      1.80711      .   S
