# CIF file generated by openbabel 2.4.90, see http://openbabel.sf.net
data_I
_chemical_name_common ''
_cell_length_a 13.083
_cell_length_b 18.27
_cell_length_c 18.307
_cell_angle_alpha 89.723
_cell_angle_beta 89.881
_cell_angle_gamma 90.08
_space_group_name_H-M_alt 'P 1'
_space_group_name_Hall 'P 1'
loop_
    _symmetry_equiv_pos_as_xyz
    x,y,z
loop_
    _atom_site_label
    _atom_site_type_symbol
    _atom_site_fract_x
    _atom_site_fract_y
    _atom_site_fract_z
    _atom_site_occupancy
    Ba0     Ba   0.66288   0.84692   0.39090   1.000
    Ba1     Ba   0.41593   0.89290   0.65109   1.000
    Ba2     Ba   0.91511   0.10708   0.34878   1.000
    Ba3     Ba   0.08915   0.34810   0.10857   1.000
    Ba4     Ba   0.58701   0.65291   0.89270   1.000
    Ba5     Ba   0.83734   0.60796   0.15146   1.000
    Ba6     Ba   0.33999   0.39141   0.84770   1.000
    Cd7     Cd   0.25240   0.34752   0.65294   1.000
    Cd8     Cd   0.75017   0.65275   0.34603   1.000
    Cd9     Cd   0.50112   0.84722   0.84605   1.000
    Cd10    Cd   0.00075   0.15408   0.15392   1.000
    H11     H    0.15328   0.23630   0.41351   1.000
    H12     H    0.30242   0.29701   0.21217   1.000
    H13     H    0.42486   0.37370   0.28099   1.000
    H14     H    0.40963   0.38318   0.41732   1.000
    H15     H    0.65137   0.76329   0.58613   1.000
    H16     H    0.80088   0.70258   0.78681   1.000
    H17     H    0.92315   0.62621   0.71737   1.000
    H18     H    0.90779   0.61701   0.58107   1.000
    H19     H    0.40478   0.08788   0.73409   1.000
    H20     H    0.55404   0.28889   0.79445   1.000
    H21     H    0.67630   0.21905   0.87085   1.000
    H22     H    0.66070   0.08238   0.88045   1.000
    H23     H    0.90241   0.91244   0.26450   1.000
    H24     H    0.05187   0.71199   0.20313   1.000
    H25     H    0.17440   0.78239   0.12691   1.000
    H26     H    0.15882   0.91906   0.11787   1.000
    H27     H    0.10119   0.26509   0.91259   1.000
    H28     H    0.95180   0.20344   0.71262   1.000
    H29     H    0.82842   0.12800   0.78307   1.000
    H30     H    0.84322   0.11975   0.91956   1.000
    H31     H    0.59891   0.73672   0.08000   1.000
    Ba32    Ba   0.16498   0.15269   0.60788   1.000
    H33     H    0.45002   0.79643   0.28704   1.000
    H34     H    0.32711   0.87280   0.21781   1.000
    H35     H    0.34181   0.88245   0.08135   1.000
    H36     H    0.84919   0.41234   0.23525   1.000
    H37     H    0.69972   0.21100   0.29670   1.000
    H38     H    0.57699   0.28043   0.37280   1.000
    H39     H    0.59266   0.41704   0.38182   1.000
    H40     H    0.34942   0.58834   0.76517   1.000
    H41     H    0.19894   0.78900   0.70425   1.000
    H42     H    0.07617   0.71889   0.62895   1.000
    H43     H    0.09255   0.58238   0.61978   1.000
    C44     C    0.28152   0.30969   0.42361   1.000
    C45     C    0.21276   0.26639   0.38455   1.000
    C46     C    0.21828   0.26264   0.30835   1.000
    C47     C    0.29550   0.30132   0.27120   1.000
    C48     C    0.36487   0.34415   0.31017   1.000
    C49     C    0.35748   0.34904   0.38600   1.000
    C50     C    0.27200   0.31501   0.50478   1.000
    C51     C    0.14023   0.21841   0.26836   1.000
    C52     C    0.77953   0.69015   0.57542   1.000
    C53     C    0.71086   0.73324   0.61483   1.000
    C54     C    0.71659   0.73694   0.69102   1.000
    C55     C    0.79382   0.69831   0.72774   1.000
    C56     C    0.86312   0.65570   0.68847   1.000
    C57     C    0.85561   0.65092   0.61265   1.000
    C58     C    0.76985   0.68503   0.49425   1.000
    C59     C    0.63904   0.78133   0.73138   1.000
    C60     C    0.53289   0.07692   0.80719   1.000
    C61     C    0.46425   0.11653   0.76404   1.000
    C62     C    0.46987   0.19294   0.76035   1.000
    C63     C    0.54713   0.22962   0.79870   1.000
    C64     C    0.61635   0.19017   0.84143   1.000
    C65     C    0.60877   0.11415   0.84638   1.000
    C66     C    0.52317   0.99555   0.81279   1.000
    C67     C    0.39183   0.23380   0.71668   1.000
    C68     C    0.03068   0.92393   0.19127   1.000
    C69     C    0.96194   0.88399   0.23430   1.000
    C70     C    0.96758   0.80760   0.23776   1.000
    C71     C    0.04494   0.77124   0.19906   1.000
    C72     C    0.11432   0.81103   0.15650   1.000
    C73     C    0.10672   0.88705   0.15183   1.000
    C74     C    0.02108   0.00530   0.18633   1.000
    C75     C    0.88962   0.76638   0.28154   1.000
    C76     C    0.97214   0.19255   0.92423   1.000
    C77     C    0.04146   0.23510   0.88425   1.000
    C78     C    0.03605   0.23820   0.80798   1.000
    C79     C    0.95851   0.19961   0.77178   1.000
    C80     C    0.88862   0.15751   0.81160   1.000
    C81     C    0.89582   0.15329   0.88750   1.000
    C82     C    0.98144   0.18773   0.00549   1.000
    C83     C    0.11429   0.28166   0.76674   1.000
    C84     C    0.47021   0.80951   0.07549   1.000
    C85     C    0.53935   0.76649   0.11479   1.000
    C86     C    0.53402   0.76256   0.19102   1.000
    C87     C    0.45674   0.80088   0.22790   1.000
    C88     C    0.38709   0.84349   0.18877   1.000
    C89     C    0.39422   0.84851   0.11280   1.000
    C90     C    0.47944   0.81495   0.99425   1.000
    C91     C    0.61216   0.71853   0.23141   1.000
    C92     C    0.72081   0.42285   0.30846   1.000
    C93     C    0.78963   0.38349   0.26539   1.000
    C94     C    0.78395   0.30712   0.26205   1.000
    C95     C    0.70654   0.27023   0.30072   1.000
    C96     C    0.63713   0.30945   0.34324   1.000
    C97     C    0.64474   0.38543   0.34787   1.000
    C98     C    0.73019   0.50418   0.31355   1.000
    C99     C    0.86188   0.26635   0.21842   1.000
    C100    C    0.22112   0.57720   0.69246   1.000
    C101    C    0.28968   0.61692   0.73526   1.000
    C102    C    0.28367   0.69324   0.73865   1.000
    C103    C    0.20603   0.72978   0.70030   1.000
    C104    C    0.13660   0.69017   0.65819   1.000
    C105    C    0.14461   0.61421   0.65348   1.000
    C106    C    0.23184   0.49598   0.68723   1.000
    C107    C    0.36170   0.73394   0.78217   1.000
    N108    N    0.94262   0.13049   0.52681   1.000
    N109    N    0.44100   0.86867   0.47291   1.000
    N110    N    0.19348   0.97431   0.63240   1.000
    N111    N    0.69162   0.02567   0.36765   1.000
    N112    N    0.31238   0.36761   0.02612   1.000
    N113    N    0.81013   0.63349   0.97374   1.000
    N114    N    0.05976   0.52598   0.13236   1.000
    N115    N    0.56149   0.47427   0.86947   1.000
    O116    O    0.02484   0.12554   0.48685   1.000
    O117    O    0.95130   0.14389   0.59405   1.000
    O118    O    0.85665   0.12212   0.49700   1.000
    O119    O    0.20479   0.27484   0.53728   1.000
    O120    O    0.32865   0.35941   0.53914   1.000
    O121    O    0.08755   0.17178   0.30292   1.000
    O122    O    0.12911   0.23118   0.19924   1.000
    O123    O    0.52352   0.87195   0.51261   1.000
    O124    O    0.44917   0.85598   0.40548   1.000
    O125    O    0.35541   0.87798   0.50315   1.000
    O126    O    0.70253   0.72517   0.46221   1.000
    O127    O    0.82644   0.64086   0.45951   1.000
    O128    O    0.58679   0.82813   0.69700   1.000
    O129    O    0.62789   0.76872   0.80055   1.000
    O130    O    0.27488   0.00000   0.62802   1.000
    O131    O    0.20383   0.90658   0.64405   1.000
    O132    O    0.10681   0.00000   0.62514   1.000
    O133    O    0.45750   0.96316   0.77182   1.000
    O134    O    0.57798   0.96086   0.85831   1.000
    O135    O    0.33762   0.19978   0.67106   1.000
    O136    O    0.38218   0.30315   0.72889   1.000
    O137    O    0.77292   0.98468   0.37190   1.000
    O138    O    0.70211   0.09342   0.35614   1.000
    O139    O    0.60486   0.99644   0.37485   1.000
    O140    O    0.95569   0.03723   0.22791   1.000
    O141    O    0.07582   0.04040   0.14082   1.000
    O142    O    0.83580   0.79994   0.32787   1.000
    O143    O    0.87968   0.69714   0.26870   1.000
    O144    O    0.23084   0.37199   0.98553   1.000
    O145    O    0.30228   0.35606   0.09378   1.000
    O146    O    0.39897   0.37476   0.99663   1.000
    O147    O    0.04874   0.22788   0.03724   1.000
    O148    O    0.92450   0.14361   0.04058   1.000
    O149    O    0.16854   0.32783   0.80016   1.000
    O150    O    0.12404   0.26902   0.69762   1.000
    O151    O    0.72850   0.62823   0.00000   1.000
    O152    O    0.80020   0.64688   0.90640   1.000
    O153    O    0.89659   0.62536   0.00000   1.000
    O154    O    0.54673   0.77490   0.96216   1.000
    O155    O    0.42284   0.85922   0.95944   1.000
    O156    O    0.66576   0.67257   0.19721   1.000
    O157    O    0.62233   0.73072   0.30058   1.000
    O158    O    0.97842   0.48500   0.12800   1.000
    O159    O    0.04947   0.59360   0.14399   1.000
    O160    O    0.14648   0.49689   0.12509   1.000
    O161    O    0.79557   0.53692   0.27212   1.000
    O162    O    0.67517   0.53846   0.35906   1.000
    O163    O    0.91575   0.30018   0.17193   1.000
    O164    O    0.87174   0.19704   0.23145   1.000
    O165    O    0.47968   0.51461   0.87447   1.000
    O166    O    0.55187   0.40690   0.85611   1.000
    O167    O    0.64781   0.50371   0.87777   1.000
    O168    O    0.29815   0.46405   0.72812   1.000
    O169    O    0.17708   0.46115   0.64199   1.000
    O170    O    0.41431   0.69994   0.82902   1.000
    O171    O    0.37302   0.80307   0.76868   1.000
loop_
    _geom_bond_atom_site_label_1
    _geom_bond_atom_site_label_2
    _geom_bond_distance
    _geom_bond_site_symmetry_2
    _ccdc_geom_bond_type
    O151   N113      1.17393  1_554   S
    O153   N113      1.23885  1_554   S
    C82    O147      1.28676  1_655   S
    C82    O148      1.26827      .   S
    C82    C76       1.49502  1_554   S
    N112   O145      1.26212      .   S
    N112   O144      1.30369  1_554   S
    N112   O146      1.26017  1_554   S
    O147   Ba3       2.61469      .   S
    O148   Cd10      2.31274  1_655   S
    C84    C89       1.40235      .   S
    C84    C85       1.39745      .   S
    C84    C90       1.49471  1_554   S
    H31    C85       1.14506      .   S
    H35    C89       1.08879      .   S
    Ba3    O163      2.68937  1_455   S
    C89    C88       1.39629      .   S
    C85    C86       1.39862      .   S
    H26    C73       1.08942      .   S
    O160   N114      1.26064      .   S
    H25    C72       1.08960      .   S
    O158   N114      1.30315  1_655   S
    N114   O159      1.26188      .   S
    O141   Cd10      2.31198      .   S
    O141   C74       1.26862      .   S
    Ba5    O156      2.67263      .   S
    Ba5    O161      2.61305      .   S
    C73    C72       1.39482      .   S
    C73    C68       1.40307      .   S
    Cd10   O122      2.34595      .   S
    Cd10   O164      2.34172  1_455   S
    C72    C71       1.39609      .   S
    O163   C99       1.26264      .   S
    C74    C68       1.49452  1_545   S
    C74    O140      1.28634  1_455   S
    C88    H34       1.08958      .   S
    C88    C87       1.39609      .   S
    C86    C87       1.40415      .   S
    C86    C91       1.49627      .   S
    C68    C69       1.39690  1_455   S
    O156   C91       1.26236      .   S
    C71    H24       1.08873      .   S
    C71    C70       1.40389  1_455   S
    O122   C51       1.29413      .   S
    H12    C47       1.08750      .   S
    C99    O164      1.29418      .   S
    C99    C94       1.49555      .   S
    C87    H33       1.08870      .   S
    O140   Ba2       2.61363      .   S
    C91    O157      1.29388      .   S
    C69    C70       1.39882      .   S
    C69    H23       1.08832      .   S
    H36    C93       1.08792      .   S
    C70    C75       1.49615      .   S
    C94    C93       1.39885      .   S
    C94    C95       1.40411      .   S
    C93    C92       1.39769      .   S
    C51    O121      1.26186      .   S
    C51    C46       1.49613      .   S
    O143   C75       1.29412      .   S
    O143   Cd8       2.34692      .   S
    C47    C46       1.40455      .   S
    C47    C48       1.39684      .   S
    O161   C98       1.28691      .   S
    H13    C48       1.08964      .   S
    C75    O142      1.26290      .   S
    H37    C95       1.08858      .   S
    O157   Cd8       2.34948      .   S
    C95    C96       1.39586      .   S
    O121   Ba2       2.67706  1_455   S
    C46    C45       1.39873      .   S
    C92    C98       1.49418      .   S
    C92    C97       1.40309      .   S
    C48    C49       1.39469      .   S
    C98    O162      1.26825      .   S
    O142   Ba0       2.68148      .   S
    C96    C97       1.39460      .   S
    C96    H38       1.08966      .   S
    Cd8    O162      2.31683      .   S
    Cd8    O127      2.31593      .   S
    C97    H39       1.08939      .   S
    O138   N111      1.26199      .   S
    N111   O137      1.30390  1_545   S
    N111   O139      1.26015  1_545   S
    C45    H11       1.08776      .   S
    C45    C44       1.39728      .   S
    C49    H14       1.08953      .   S
    C49    C44       1.40324      .   S
    Ba0    O126      2.62665      .   S
    O124   N109      1.26145      .   S
    C44    C50       1.49457      .   S
    O127   C58       1.26835      .   S
    O126   C58       1.28739      .   S
    N109   O125      1.26020      .   S
    N109   O123      1.30420      .   S
    O116   N108      1.30305  1_455   S
    C58    C52       1.49499      .   S
    O118   N108      1.26068      .   S
    C50    O119      1.28741      .   S
    C50    O120      1.26824      .   S
    N108   O117      1.26153      .   S
    O119   Ba32      2.62450      .   S
    O120   Cd7       2.31713      .   S
    C52    C57       1.40324      .   S
    C52    C53       1.39725      .   S
    H18    C57       1.08954      .   S
    H15    C53       1.08775      .   S
    Ba32   O135      2.68218      .   S
    C57    C56       1.39486      .   S
    C53    C54       1.39893      .   S
    H43    C105      1.08943      .   S
    O132   N110      1.23503  1_545   S
    O130   N110      1.16561  1_545   S
    H42    C104      1.08958      .   S
    N110   O131      1.26201      .   S
    O169   Cd7       2.30718      .   S
    O169   C106      1.26900      .   S
    Ba1    O128      2.66630      .   S
    Ba1    O133      2.61898      .   S
    Cd7    O150      2.35004      .   S
    Cd7    O136      2.34011      .   S
    C105   C104      1.39492      .   S
    C105   C100      1.40309      .   S
    C104   C103      1.39629      .   S
    O135   C67       1.26222      .   S
    C106   C100      1.49420      .   S
    C106   O168      1.28572      .   S
    C56    H17       1.08965      .   S
    C56    C55       1.39628      .   S
    C54    C55       1.40391      .   S
    C54    C59       1.49605      .   S
    C100   C101      1.39705      .   S
    O128   C59       1.26206      .   S
    O150   C83       1.29348      .   S
    C103   H41       1.08873      .   S
    C103   C102      1.40394      .   S
    H28    C79       1.08870      .   S
    C67    O136      1.29400      .   S
    C67    C62       1.49622      .   S
    C55    H16       1.08869      .   S
    O168   Ba6       2.61387      .   S
    C59    O129      1.29391      .   S
    H19    C61       1.08783      .   S
    C101   C102      1.39842      .   S
    C101   H40       1.08776      .   S
    C102   C107      1.49556      .   S
    C62    C61       1.39906      .   S
    C62    C63       1.40330      .   S
    C61    C60       1.39770      .   S
    C83    O149      1.26283      .   S
    C83    C78       1.49572      .   S
    O171   C107      1.29392      .   S
    O171   Cd9       2.34155      .   S
    C79    C78       1.40378  1_655   S
    C79    C80       1.39600      .   S
    O133   C66       1.28701      .   S
    C107   O170      1.26246      .   S
    H29    C80       1.08960      .   S
    H20    C63       1.08872      .   S
    C63    C64       1.39680      .   S
    O149   Ba6       2.67369      .   S
    O129   Cd9       2.34818      .   S
    C60    C66       1.49490  1_545   S
    C60    C65       1.40312      .   S
    C78    C77       1.39909      .   S
    C80    C81       1.39465      .   S
    C66    O134      1.26833      .   S
    O170   Ba4       2.68490      .   S
    C64    C65       1.39478      .   S
    C64    H21       1.08954      .   S
    Cd9    O134      2.31770      .   S
    Cd9    O155      2.32425      .   S
    C65    H22       1.08945      .   S
    O166   N115      1.26229      .   S
    N115   O165      1.30374      .   S
    N115   O167      1.26000      .   S
    C77    H27       1.08785      .   S
    C77    C76       1.39724  1_455   S
    C81    H30       1.08952      .   S
    C81    C76       1.40326      .   S
    Ba4    O154      2.62488      .   S
    O152   N113      1.26268      .   S
    O155   C90       1.26770      .   S
    O154   C90       1.28816      .   S
    O116   Ba32      2.92268      .   S
    O116   Ba2       2.93010  1_455   S
    O117   Ba32      2.81197  1_655   S
    O118   Ba2       2.83242      .   S
    O122   Ba3       2.75036      .   S
    O123   Ba0       2.91432      .   S
    O123   Ba1       2.92421      .   S
    O124   Ba0       2.81339      .   S
    O125   Ba1       2.83758      .   S
    O129   Ba4       2.75087      .   S
    O130   Ba32      3.16053      .   S
    O130   Ba1       2.72357  1_545   S
    O131   Ba1       2.78969      .   S
    O132   Ba32      2.90620      .   S
    O136   Ba6       2.76895      .   S
    O137   Ba0       2.91663      .   S
    O137   Ba2       2.93553  1_565   S
    O138   Ba2       2.80042      .   S
    O139   Ba0       2.85019      .   S
    O143   Ba5       2.75763      .   S
    O144   Ba3       2.94470  1_556   S
    O144   Ba6       2.91664      .   S
    O145   Ba3       2.80444      .   S
    O146   Ba6       2.85006      .   S
    O150   Ba32      2.74512      .   S
    O151   Ba4       2.73818  1_554   S
    O151   Ba5       3.14020      .   S
    O152   Ba4       2.80330      .   S
    O153   Ba5       2.89347      .   S
    O157   Ba0       2.74903      .   S
    O158   Ba3       2.91494  1_655   S
    O158   Ba5       2.94218      .   S
    O159   Ba5       2.79118  1_455   S
    O160   Ba3       2.83659      .   S
    O164   Ba2       2.75866      .   S
    O165   Ba4       2.90988      .   S
    O165   Ba6       2.94109      .   S
    O166   Ba6       2.79065      .   S
    O167   Ba4       2.85488      .   S
    O171   Ba1       2.75708      .   S
