# CIF file generated by openbabel 2.4.90, see http://openbabel.sf.net
data_I
_chemical_name_common ''
_cell_length_a 13.083
_cell_length_b 18.27
_cell_length_c 18.307
_cell_angle_alpha 89.723
_cell_angle_beta 89.881
_cell_angle_gamma 90.08
_space_group_name_H-M_alt 'P 1'
_space_group_name_Hall 'P 1'
loop_
    _symmetry_equiv_pos_as_xyz
    x,y,z
loop_
    _atom_site_label
    _atom_site_type_symbol
    _atom_site_fract_x
    _atom_site_fract_y
    _atom_site_fract_z
    _atom_site_occupancy
    N0      N    0.26143   0.29338   0.35997   1.000
    N1      N    0.75970   0.70647   0.63915   1.000
    N2      N    0.01071   0.85982   0.20727   1.000
    N3      N    0.74073   0.35891   0.29255   1.000
    N4      N    0.99242   0.20814   0.86019   1.000
    N5      N    0.24093   0.64114   0.70836   1.000
    N6      N    0.51283   0.14093   0.79109   1.000
    N7      N    0.49055   0.79317   0.13888   1.000
    N8      N    0.44227   0.86864   0.47354   1.000
    N9      N    0.19475   0.97022   0.63240   1.000
    N10     N    0.69287   0.02505   0.36763   1.000
    N11     N    0.80886   0.63349   0.97003   1.000
    N12     N    0.94385   0.13051   0.52618   1.000
    N13     N    0.31112   0.36761   0.02551   1.000
    N14     N    0.56021   0.47487   0.86945   1.000
    N15     N    0.05853   0.52537   0.13236   1.000
    Zr16    Zr   0.50112   0.84722   0.84605   1.000
    O17     O    0.48869   0.83521   0.93343   1.000
    O18     O    0.51365   0.93485   0.83384   1.000
    O19     O    0.58161   0.80222   0.78864   1.000
    O20     O    0.42006   0.79018   0.80196   1.000
    Zr21    Zr   0.25240   0.34752   0.65294   1.000
    O22     O    0.26419   0.33547   0.56547   1.000
    O23     O    0.33373   0.29033   0.69697   1.000
    O24     O    0.24012   0.43513   0.66543   1.000
    O25     O    0.17136   0.30287   0.71034   1.000
    Zr26    Zr   0.66288   0.84692   0.39090   1.000
    O27     O    0.61473   0.81896   0.31660   1.000
    O28     O    0.77145   0.84427   0.33711   1.000
    O29     O    0.69204   0.79659   0.46188   1.000
    Zr30    Zr   0.16498   0.15269   0.60788   1.000
    O31     O    0.11672   0.18110   0.68217   1.000
    O32     O    0.27352   0.15564   0.66158   1.000
    O33     O    0.19407   0.20313   0.53708   1.000
    Zr34    Zr   0.83734   0.60796   0.15146   1.000
    O35     O    0.72919   0.66234   0.15403   1.000
    O36     O    0.80796   0.53682   0.20182   1.000
    O37     O    0.88597   0.68208   0.18007   1.000
    Zr38    Zr   0.08915   0.34810   0.10857   1.000
    O39     O    0.98037   0.34481   0.16249   1.000
    O40     O    0.05992   0.29809   0.03756   1.000
    O41     O    0.13722   0.31981   0.18275   1.000
    Zr42    Zr   0.00075   0.15408   0.15392   1.000
    O43     O    0.91962   0.21066   0.19827   1.000
    O44     O    0.08197   0.19854   0.21110   1.000
    O45     O    0.98914   0.16629   0.06632   1.000
    O46     O    0.01262   0.06631   0.16562   1.000
    Zr47    Zr   0.58701   0.65291   0.89270   1.000
    O48     O    0.55786   0.70323   0.96293   1.000
    O49     O    0.47890   0.65585   0.83865   1.000
    O50     O    0.63529   0.68078   0.81779   1.000
    Zr51    Zr   0.41593   0.89290   0.65109   1.000
    O52     O    0.44535   0.96369   0.70118   1.000
    O53     O    0.52323   0.83820   0.65384   1.000
    O54     O    0.36682   0.81873   0.68011   1.000
    Zr55    Zr   0.33999   0.39141   0.84770   1.000
    O56     O    0.38847   0.31776   0.81870   1.000
    O57     O    0.23167   0.33765   0.84488   1.000
    O58     O    0.30999   0.46292   0.79792   1.000
    Zr59    Zr   0.91511   0.10708   0.34878   1.000
    O60     O    0.86609   0.18128   0.32006   1.000
    O61     O    0.94408   0.03654   0.29829   1.000
    O62     O    0.02325   0.16175   0.34585   1.000
    Zr63    Zr   0.75017   0.65275   0.34603   1.000
    O64     O    0.66928   0.69760   0.28856   1.000
    O65     O    0.73844   0.56500   0.33429   1.000
    O66     O    0.83149   0.71007   0.30167   1.000
    O67     O    0.76209   0.66469   0.43350   1.000
    O68     O    0.08759   0.14490   0.57903   1.000
    O69     O    0.92550   0.11503   0.41102   1.000
    O70     O    0.67363   0.90941   0.38289   1.000
    O71     O    0.83735   0.07807   0.35540   1.000
    O72     O    0.58566   0.85448   0.42008   1.000
    O73     O    0.42546   0.88459   0.58880   1.000
    O74     O    0.57740   0.59044   0.88482   1.000
    O75     O    0.41702   0.42094   0.85534   1.000
    O76     O    0.07816   0.41028   0.11676   1.000
    O77     O    0.16682   0.35497   0.07919   1.000
    O78     O    0.82712   0.61670   0.08717   1.000
    O79     O    0.91471   0.57873   0.14475   1.000
    O80     O    0.66464   0.64614   0.91960   1.000
    O81     O    0.17566   0.08799   0.61635   1.000
    O82     O    0.33856   0.91978   0.64454   1.000
    O83     O    0.32964   0.38321   0.91008   1.000
loop_
    _geom_bond_atom_site_label_1
    _geom_bond_atom_site_label_2
    _geom_bond_distance
    _geom_bond_site_symmetry_2
    _ccdc_geom_bond_type
    Zr16   O17       1.62141      .   S
    N7     O17       3.83521  1_554   S
    Zr16   O18       1.62351      .   S
    N6     O18       3.84180  1_545   S
    Zr16   O19       1.70170      .   S
    N1     O19       4.00117      .   S
    Zr16   O20       1.69437      .   S
    N5     O20       3.98584      .   S
    Zr21   O22       1.62442      .   S
    N0     O22       3.84375      .   S
    Zr21   O23       1.69484      .   S
    N6     O23       3.98738      .   S
    Zr21   O24       1.62604      .   S
    N5     O24       3.84869      .   S
    Zr21   O25       1.69664      .   S
    N4     O25       3.98965  1_655   S
    Zr26   O27       1.58658      .   S
    N7     O27       3.67186      .   S
    Zr26   O28       1.72755      .   S
    N2     O28       3.93564  1_455   S
    Zr26   O29       1.63431      .   S
    N1     O29       3.74047      .   S
    Zr30   O31       1.58806      .   S
    N4     O31       3.67492  1_655   S
    Zr30   O32       1.72975      .   S
    N6     O32       3.93996      .   S
    Zr30   O33       1.63080      .   S
    N0     O33       3.73360      .   S
    Zr34   O35       1.73065      .   S
    N7     O35       3.94416      .   S
    Zr34   O36       1.63480      .   S
    N3     O36       3.74596      .   S
    Zr34   O37       1.58693      .   S
    N2     O37       3.66891  1_455   S
    Zr38   O39       1.73109  1_455   S
    N3     O39       3.94246      .   S
    Zr38   O40       1.63829      .   S
    N4     O40       3.75278  1_656   S
    Zr38   O41       1.58266      .   S
    N0     O41       3.66182      .   S
    Zr42   O43       1.69170  1_455   S
    N3     O43       3.97982      .   S
    Zr42   O44       1.70149      .   S
    N0     O44       4.00053      .   S
    Zr42   O45       1.62552  1_455   S
    N4     O45       3.84686  1_556   S
    Zr42   O46       1.62456      .   S
    N2     O46       3.84520  1_565   S
    Zr47   O48       1.62900      .   S
    N7     O48       3.72758  1_554   S
    Zr47   O49       1.72850      .   S
    N5     O49       3.93571      .   S
    Zr47   O50       1.58981      .   S
    N1     O50       3.67781      .   S
    Zr51   O52       1.63503      .   S
    N6     O52       3.74482  1_545   S
    Zr51   O53       1.72506      .   S
    N1     O53       3.93180      .   S
    Zr51   O54       1.58760      .   S
    N5     O54       3.67052      .   S
    Zr55   O56       1.58207      .   S
    N6     O56       3.65608      .   S
    Zr55   O57       1.72419      .   S
    N4     O57       3.92975  1_655   S
    Zr55   O58       1.63800      .   S
    N5     O58       3.75087      .   S
    Zr59   O60       1.58822      .   S
    N3     O60       3.67115      .   S
    Zr59   O61       1.63420      .   S
    N2     O61       3.74359  1_465   S
    Zr59   O62       1.73115  1_655   S
    N0     O62       3.94332      .   S
    Zr63   O64       1.70205      .   S
    N7     O64       4.00223      .   S
    Zr63   O65       1.62558      .   S
    N3     O65       3.84587      .   S
    Zr63   O66       1.69502      .   S
    N2     O66       3.98618  1_455   S
    Zr63   O67       1.62486      .   S
    N1     O67       3.84523      .   S
    N12    O68       2.13304  1_655   S
    Zr30   O68       1.15202      .   S
    N12    O69       2.14232      .   S
    Zr59   O69       1.15765      .   S
    N10    O70       2.14422  1_545   S
    Zr26   O70       1.15862      .   S
    N10    O71       2.13364      .   S
    Zr59   O71       1.15237      .   S
    N8     O72       2.13077      .   S
    Zr26   O72       1.15060      .   S
    N8     O73       2.14246      .   S
    Zr51   O73       1.15761      .   S
    N14    O74       2.14288      .   S
    Zr47   O74       1.15796      .   S
    N14    O75       2.13229      .   S
    Zr55   O75       1.15157      .   S
    Zr38   O76       1.15557      .   S
    N15    O76       2.13913      .   S
    Zr38   O77       1.15509      .   S
    N13    O77       2.13818      .   S
    Zr34   O78       1.19474      .   S
    N11    O78       2.17845  1_556   S
    Zr34   O79       1.15183      .   S
    N15    O79       2.13261  1_455   S
    Zr47   O80       1.13628      .   S
    N11    O80       2.11484      .   S
    N9     O81       2.18490  1_565   S
    Zr30   O81       1.19991      .   S
    N9     O82       2.10792      .   S
    Zr51   O82       1.13200      .   S
    N13    O83       2.14428  1_554   S
    Zr55   O83       1.15864      .   S
