# CIF file generated by openbabel 2.4.90, see http://openbabel.sf.net
data_I
_chemical_name_common ''
_cell_length_a 13.083
_cell_length_b 18.27
_cell_length_c 18.307
_cell_angle_alpha 89.723
_cell_angle_beta 89.881
_cell_angle_gamma 90.08
_space_group_name_H-M_alt 'P 1'
_space_group_name_Hall 'P 1'
loop_
    _symmetry_equiv_pos_as_xyz
    x,y,z
loop_
    _atom_site_label
    _atom_site_type_symbol
    _atom_site_fract_x
    _atom_site_fract_y
    _atom_site_fract_z
    _atom_site_occupancy
    N0      N    0.26143   0.29338   0.35997   1.000
    N1      N    0.75970   0.70647   0.63915   1.000
    N2      N    0.01071   0.85982   0.20727   1.000
    N3      N    0.74073   0.35891   0.29255   1.000
    N4      N    0.99242   0.20814   0.86019   1.000
    N5      N    0.24093   0.64114   0.70836   1.000
    N6      N    0.51283   0.14093   0.79109   1.000
    N7      N    0.49055   0.79317   0.13888   1.000
    N8      N    0.44227   0.86864   0.47354   1.000
    N9      N    0.19475   0.97022   0.63240   1.000
    N10     N    0.69287   0.02505   0.36763   1.000
    N11     N    0.80886   0.63349   0.97003   1.000
    N12     N    0.94385   0.13051   0.52618   1.000
    N13     N    0.31112   0.36761   0.02551   1.000
    N14     N    0.56021   0.47487   0.86945   1.000
    N15     N    0.05853   0.52537   0.13236   1.000
    Zr16    Zr   0.50112   0.84722   0.84605   1.000
    O17     O    0.48869   0.83521   0.93343   1.000
    O18     O    0.51365   0.93485   0.83384   1.000
    O19     O    0.58161   0.80222   0.78864   1.000
    O20     O    0.42006   0.79018   0.80196   1.000
    Zr21    Zr   0.25240   0.34752   0.65294   1.000
    O22     O    0.26419   0.33547   0.56547   1.000
    O23     O    0.33373   0.29033   0.69697   1.000
    O24     O    0.24012   0.43513   0.66543   1.000
    O25     O    0.17136   0.30287   0.71034   1.000
    Zr26    Zr   0.66288   0.84692   0.39090   1.000
    O27     O    0.68413   0.90867   0.38271   1.000
    O28     O    0.58102   0.85349   0.41338   1.000
    O29     O    0.61473   0.81896   0.31660   1.000
    O30     O    0.77145   0.84427   0.33711   1.000
    O31     O    0.59031   0.85548   0.42677   1.000
    O32     O    0.69204   0.79659   0.46188   1.000
    O33     O    0.66313   0.91015   0.38308   1.000
    Zr34    Zr   0.16498   0.15269   0.60788   1.000
    O35     O    0.08299   0.14605   0.58573   1.000
    O36     O    0.09218   0.14375   0.57233   1.000
    O37     O    0.18616   0.08799   0.61653   1.000
    O38     O    0.11672   0.18110   0.68217   1.000
    O39     O    0.27352   0.15564   0.66158   1.000
    O40     O    0.19407   0.20313   0.53708   1.000
    O41     O    0.16515   0.08799   0.61617   1.000
    Zr42    Zr   0.83734   0.60796   0.15146   1.000
    O43     O    0.72919   0.66234   0.15403   1.000
    O44     O    0.91915   0.58552   0.14575   1.000
    O45     O    0.80796   0.53682   0.20182   1.000
    O46     O    0.88597   0.68208   0.18007   1.000
    O47     O    0.83762   0.61652   0.08717   1.000
    O48     O    0.91027   0.57194   0.14375   1.000
    O49     O    0.81661   0.61688   0.08717   1.000
    Zr50    Zr   0.08915   0.34810   0.10857   1.000
    O51     O    0.98037   0.34481   0.16249   1.000
    O52     O    0.05992   0.29809   0.03756   1.000
    O53     O    0.16236   0.35597   0.07243   1.000
    O54     O    0.13722   0.31981   0.18275   1.000
    O55     O    0.17129   0.35398   0.08596   1.000
    O56     O    0.08866   0.41102   0.11658   1.000
    O57     O    0.06766   0.40953   0.11695   1.000
    Zr58    Zr   0.00075   0.15408   0.15392   1.000
    O59     O    0.91962   0.21066   0.19827   1.000
    O60     O    0.08197   0.19854   0.21110   1.000
    O61     O    0.98914   0.16629   0.06632   1.000
    O62     O    0.01262   0.06631   0.16562   1.000
    Zr63    Zr   0.58701   0.65291   0.89270   1.000
    O64     O    0.56689   0.59112   0.88461   1.000
    O65     O    0.55786   0.70323   0.96293   1.000
    O66     O    0.66912   0.64730   0.91375   1.000
    O67     O    0.58791   0.58975   0.88502   1.000
    O68     O    0.47890   0.65585   0.83865   1.000
    O69     O    0.66016   0.64497   0.92545   1.000
    O70     O    0.63529   0.68078   0.81779   1.000
    Zr71    Zr   0.41593   0.89290   0.65109   1.000
    O72     O    0.41495   0.88497   0.58821   1.000
    O73     O    0.43596   0.88422   0.58939   1.000
    O74     O    0.44535   0.96369   0.70118   1.000
    O75     O    0.33412   0.91394   0.64554   1.000
    O76     O    0.34300   0.92562   0.64353   1.000
    O77     O    0.52323   0.83820   0.65384   1.000
    O78     O    0.36682   0.81873   0.68011   1.000
    Zr79    Zr   0.33999   0.39141   0.84770   1.000
    O80     O    0.42153   0.41421   0.85419   1.000
    O81     O    0.41251   0.42768   0.85648   1.000
    O82     O    0.38847   0.31776   0.81870   1.000
    O83     O    0.23167   0.33765   0.84488   1.000
    O84     O    0.30999   0.46292   0.79792   1.000
    O85     O    0.34014   0.38338   0.91077   1.000
    O86     O    0.31913   0.38303   0.90938   1.000
    Zr87    Zr   0.91511   0.10708   0.34878   1.000
    O88     O    0.83293   0.08487   0.35441   1.000
    O89     O    0.93601   0.11525   0.41039   1.000
    O90     O    0.84178   0.07127   0.35638   1.000
    O91     O    0.86609   0.18128   0.32006   1.000
    O92     O    0.94408   0.03654   0.29829   1.000
    O93     O    0.02325   0.16175   0.34585   1.000
    O94     O    0.91499   0.11482   0.41166   1.000
    Zr95    Zr   0.75017   0.65275   0.34603   1.000
    O96     O    0.66928   0.69760   0.28856   1.000
    O97     O    0.73844   0.56500   0.33429   1.000
    O98     O    0.83149   0.71007   0.30167   1.000
    O99     O    0.76209   0.66469   0.43350   1.000
loop_
    _geom_bond_atom_site_label_1
    _geom_bond_atom_site_label_2
    _geom_bond_distance
    _geom_bond_site_symmetry_2
    _ccdc_geom_bond_type
    Zr16   O17       1.62141      .   S
    N7     O17       3.83521  1_554   S
    Zr16   O18       1.62351      .   S
    N6     O18       3.84180  1_545   S
    Zr16   O19       1.70170      .   S
    N1     O19       4.00117      .   S
    Zr16   O20       1.69437      .   S
    N5     O20       3.98584      .   S
    Zr21   O22       1.62442      .   S
    N0     O22       3.84375      .   S
    Zr21   O23       1.69484      .   S
    N6     O23       3.98738      .   S
    Zr21   O24       1.62604      .   S
    N5     O24       3.84869      .   S
    Zr21   O25       1.69664      .   S
    N4     O25       3.98965  1_655   S
    Zr26   O27       1.17044      .   S
    N10    O27       2.14557  1_545   S
    Zr26   O28       1.15323      .   S
    N8     O28       2.14018      .   S
    Zr26   O29       1.58658      .   S
    N7     O29       3.67186      .   S
    Zr26   O30       1.72755      .   S
    N2     O30       3.93564  1_455   S
    Zr26   O31       1.16449      .   S
    N8     O31       2.13031      .   S
    Zr26   O32       1.63431      .   S
    N1     O32       3.74047      .   S
    Zr26   O33       1.16321      .   S
    N10    O33       2.15177  1_545   S
    Zr34   O35       1.15405      .   S
    N12    O35       2.14298  1_655   S
    Zr34   O36       1.16647      .   S
    N12    O36       2.13204  1_655   S
    Zr34   O37       1.22417      .   S
    N9     O37       2.17283  1_565   S
    Zr34   O38       1.58806      .   S
    N4     O38       3.67492  1_655   S
    Zr34   O39       1.72975      .   S
    N6     O39       3.93996      .   S
    Zr34   O40       1.63080      .   S
    N0     O40       3.73360      .   S
    Zr34   O41       1.19112      .   S
    N9     O41       2.20550  1_565   S
    Zr42   O43       1.73065      .   S
    N7     O43       3.94416      .   S
    Zr42   O44       1.15152      .   S
    N15    O44       2.14463  1_455   S
    Zr42   O45       1.63480      .   S
    N3     O45       3.74596      .   S
    Zr42   O46       1.58693      .   S
    N2     O46       3.66891  1_455   S
    Zr42   O47       1.18652      .   S
    N11    O47       2.19853  1_556   S
    Zr42   O48       1.16859      .   S
    N15    O48       2.12950  1_455   S
    Zr42   O49       1.21853      .   S
    N11    O49       2.16693  1_556   S
    Zr50   O51       1.73109  1_455   S
    N3     O51       3.94246      .   S
    Zr50   O52       1.63829      .   S
    N4     O52       3.75278  1_656   S
    Zr50   O53       1.17121      .   S
    N13    O53       2.13562      .   S
    Zr50   O54       1.58266      .   S
    N0     O54       3.66182      .   S
    Zr50   O55       1.15538      .   S
    N13    O55       2.14963      .   S
    Zr50   O56       1.15948      .   S
    N15    O56       2.14732      .   S
    Zr50   O57       1.16810      .   S
    N15    O57       2.13984      .   S
    Zr58   O59       1.69170  1_455   S
    N3     O59       3.97982      .   S
    Zr58   O60       1.70149      .   S
    N0     O60       4.00053      .   S
    Zr58   O61       1.62552  1_455   S
    N4     O61       3.84686  1_556   S
    Zr58   O62       1.62456      .   S
    N2     O62       3.84520  1_565   S
    Zr63   O64       1.16912      .   S
    N14    O64       2.14481      .   S
    Zr63   O65       1.62900      .   S
    N7     O65       3.72758  1_554   S
    Zr63   O66       1.14659      .   S
    N11    O66       2.11530      .   S
    Zr63   O67       1.16321      .   S
    N14    O67       2.14983      .   S
    Zr63   O68       1.72850      .   S
    N5     O68       3.93571      .   S
    Zr63   O69       1.13940      .   S
    N11    O69       2.12161      .   S
    Zr63   O70       1.58981      .   S
    N1     O70       3.67781      .   S
    Zr71   O72       1.16103      .   S
    N8     O72       2.15106      .   S
    Zr71   O73       1.17059      .   S
    N8     O73       2.14275      .   S
    Zr71   O74       1.63503      .   S
    N6     O74       3.74482  1_545   S
    Zr71   O75       1.14230      .   S
    N9     O75       2.10822      .   S
    Zr71   O76       1.13494      .   S
    N9     O76       2.11473      .   S
    Zr71   O77       1.72506      .   S
    N1     O77       3.93180      .   S
    Zr71   O78       1.58760      .   S
    N5     O78       3.67052      .   S
    Zr79   O80       1.15130      .   S
    N14    O80       2.14428      .   S
    Zr79   O81       1.16830      .   S
    N14    O81       2.12921      .   S
    Zr79   O82       1.58207      .   S
    N6     O82       3.65608      .   S
    Zr79   O83       1.72419      .   S
    N4     O83       3.92975  1_655   S
    Zr79   O84       1.63800      .   S
    N5     O84       3.75087      .   S
    Zr79   O85       1.16321      .   S
    N13    O85       2.15184  1_554   S
    Zr79   O86       1.17047      .   S
    N13    O86       2.14561  1_554   S
    Zr87   O88       1.15299      .   S
    N10    O88       2.14482      .   S
    Zr87   O89       1.17127      .   S
    N12    O89       2.14201      .   S
    Zr87   O90       1.16820      .   S
    N10    O90       2.13138      .   S
    Zr87   O91       1.58822      .   S
    N3     O91       3.67115      .   S
    Zr87   O92       1.63420      .   S
    N2     O92       3.74359  1_465   S
    Zr87   O93       1.73115  1_655   S
    N0     O93       3.94332      .   S
    Zr87   O94       1.16041      .   S
    N12    O94       2.15151      .   S
    Zr95   O96       1.70205      .   S
    N7     O96       4.00223      .   S
    Zr95   O97       1.62558      .   S
    N3     O97       3.84587      .   S
    Zr95   O98       1.69502      .   S
    N2     O98       3.98618  1_455   S
    Zr95   O99       1.62486      .   S
    N1     O99       3.84523      .   S
