# CIF file generated by openbabel 2.4.90, see http://openbabel.sf.net
data_I
_chemical_name_common 'VESTA_phase_1'
_cell_length_a 15.541
_cell_length_b 15.536
_cell_length_c 15.533
_cell_angle_alpha 76.13
_cell_angle_beta 76.134
_cell_angle_gamma 76.139
_space_group_name_H-M_alt 'P 1'
_space_group_name_Hall 'P 1'
loop_
    _symmetry_equiv_pos_as_xyz
    x,y,z
loop_
    _atom_site_label
    _atom_site_type_symbol
    _atom_site_fract_x
    _atom_site_fract_y
    _atom_site_fract_z
    _atom_site_occupancy
    Zn0     Zn   0.07554   0.51084   0.51085   1.000
    Zn1     Zn   0.51083   0.07562   0.51080   1.000
    Zn2     Zn   0.51081   0.51082   0.07565   1.000
    Zn3     Zn   0.48917   0.92438   0.48918   1.000
    Zn4     Zn   0.92444   0.48915   0.48917   1.000
    Zn5     Zn   0.48919   0.48917   0.92437   1.000
    H6      H    0.97613   0.20163   0.50774   1.000
    H7      H    0.50781   0.97599   0.20162   1.000
    H8      H    0.20168   0.50753   0.97595   1.000
    H9      H    0.79834   0.02402   0.49240   1.000
    H10     H    0.02387   0.49223   0.79838   1.000
    H11     H    0.49219   0.79836   0.02400   1.000
    H12     H    0.02387   0.79836   0.49228   1.000
    H13     H    0.49219   0.02400   0.79839   1.000
    H14     H    0.79832   0.49246   0.02407   1.000
    H15     H    0.20166   0.97598   0.50753   1.000
    H16     H    0.97613   0.50776   0.20164   1.000
    H17     H    0.50780   0.20163   0.97595   1.000
    H18     H    0.23787   0.23766   0.52227   1.000
    H19     H    0.52260   0.23772   0.23768   1.000
    H20     H    0.23788   0.52231   0.23765   1.000
    H21     H    0.76212   0.76233   0.47774   1.000
    H22     H    0.76212   0.47768   0.76237   1.000
    H23     H    0.47740   0.76227   0.76233   1.000
    C24     C    0.06563   0.32752   0.51477   1.000
    C25     C    0.10293   0.22921   0.51559   1.000
    C26     C    0.04679   0.17321   0.51050   1.000
    C27     C    0.51496   0.06548   0.32752   1.000
    C28     C    0.51581   0.10279   0.22920   1.000
    C29     C    0.51064   0.04666   0.17321   1.000
    C30     C    0.32758   0.51463   0.06539   1.000
    C31     C    0.22930   0.51552   0.10272   1.000
    C32     C    0.17329   0.51039   0.04660   1.000
    C33     C    0.67242   0.93457   0.48538   1.000
    C34     C    0.77070   0.89724   0.48450   1.000
    C35     C    0.82671   0.95335   0.48960   1.000
    C36     C    0.93436   0.48517   0.67249   1.000
    C37     C    0.89707   0.48436   0.77082   1.000
    C38     C    0.95321   0.48947   0.82681   1.000
    C39     C    0.48506   0.67246   0.93459   1.000
    C40     C    0.48419   0.77077   0.89728   1.000
    C41     C    0.48937   0.82676   0.95340   1.000
    C42     C    0.93436   0.67247   0.48525   1.000
    C43     C    0.89707   0.77079   0.48442   1.000
    C44     C    0.95321   0.82678   0.48950   1.000
    C45     C    0.48504   0.93451   0.67249   1.000
    C46     C    0.48419   0.89720   0.77081   1.000
    C47     C    0.48936   0.95333   0.82681   1.000
    C48     C    0.67242   0.48536   0.93463   1.000
    C49     C    0.77070   0.48447   0.89730   1.000
    C50     C    0.82671   0.48961   0.95341   1.000
    C51     C    0.32758   0.06543   0.51464   1.000
    C52     C    0.22930   0.10275   0.51551   1.000
    C53     C    0.17329   0.04665   0.51037   1.000
    C54     C    0.06563   0.51482   0.32750   1.000
    C55     C    0.10293   0.51563   0.22920   1.000
    C56     C    0.04679   0.51052   0.17320   1.000
    C57     C    0.51493   0.32753   0.06542   1.000
    C58     C    0.51580   0.22922   0.10273   1.000
    C59     C    0.51062   0.17323   0.04661   1.000
    C60     C    0.08118   0.08110   0.50820   1.000
    C61     C    0.02439   0.02435   0.50260   1.000
    C62     C    0.19415   0.19400   0.51868   1.000
    C63     C    0.50837   0.08111   0.08100   1.000
    C64     C    0.50264   0.02437   0.02435   1.000
    C65     C    0.51898   0.19402   0.19399   1.000
    C66     C    0.08119   0.50822   0.08107   1.000
    C67     C    0.02439   0.50260   0.02434   1.000
    C68     C    0.19415   0.51872   0.19398   1.000
    C69     C    0.91882   0.91890   0.49181   1.000
    C70     C    0.97561   0.97564   0.49741   1.000
    C71     C    0.80585   0.80600   0.48130   1.000
    C72     C    0.91881   0.49177   0.91894   1.000
    C73     C    0.97561   0.49739   0.97567   1.000
    C74     C    0.80584   0.48128   0.80604   1.000
    C75     C    0.49162   0.91887   0.91894   1.000
    C76     C    0.49735   0.97562   0.97567   1.000
    C77     C    0.48102   0.80597   0.80600   1.000
    O78     O    0.98364   0.35655   0.50471   1.000
    O79     O    0.11856   0.37535   0.52295   1.000
    O80     O    0.50491   0.98346   0.35650   1.000
    O81     O    0.52306   0.11847   0.37534   1.000
    O82     O    0.35661   0.50457   0.98339   1.000
    O83     O    0.37538   0.52274   0.11839   1.000
    O84     O    0.64341   0.01657   0.49545   1.000
    O85     O    0.62461   0.88159   0.47726   1.000
    O86     O    0.01635   0.49524   0.64345   1.000
    O87     O    0.88143   0.47699   0.62460   1.000
    O88     O    0.49510   0.64343   0.01660   1.000
    O89     O    0.47700   0.62465   0.88158   1.000
    O90     O    0.01635   0.64344   0.49531   1.000
    O91     O    0.88144   0.62465   0.47700   1.000
    O92     O    0.49509   0.01653   0.64345   1.000
    O93     O    0.47694   0.88152   0.62467   1.000
    O94     O    0.64338   0.49543   0.01660   1.000
    O95     O    0.62462   0.47725   0.88163   1.000
    O96     O    0.35659   0.98342   0.50457   1.000
    O97     O    0.37538   0.11841   0.52275   1.000
    O98     O    0.98365   0.50475   0.35657   1.000
    O99     O    0.11856   0.52301   0.37535   1.000
    O100    O    0.50489   0.35656   0.98342   1.000
    O101    O    0.52300   0.37534   0.11843   1.000
loop_
    _geom_bond_atom_site_label_1
    _geom_bond_atom_site_label_2
    _geom_bond_distance
    _geom_bond_site_symmetry_2
    _ccdc_geom_bond_type
    O88    Zn2       2.02626      .   S
    O88    C39       1.27928  1_554   S
    O94    Zn2       2.02646      .   S
    O94    C48       1.27887  1_554   S
    H11    C41       1.08671  1_554   S
    H14    C50       1.08771  1_554   S
    C67    C66       1.41772      .   S
    C67    C73       1.21906  1_454   S
    C64    C63       1.41654      .   S
    C64    C76       1.21912  1_544   S
    C32    C66       1.40848      .   S
    C32    C31       1.39793      .   S
    C32    H8        1.08757  1_554   S
    C59    C63       1.40825      .   S
    C59    C58       1.39777      .   S
    C59    H17       1.08758  1_554   S
    C30    C31       1.49615      .   S
    C30    O83       1.27788      .   S
    C30    O82       1.27928  1_554   S
    C57    C58       1.49606      .   S
    C57    O101      1.27780      .   S
    C57    O100      1.27916  1_554   S
    Zn2    O83       2.02674      .   S
    Zn2    O101      2.02644      .   S
    C63    C29       1.40954      .   S
    C66    C56       1.40842      .   S
    C31    C68       1.39996      .   S
    C58    C65       1.39994      .   S
    C56    H16       1.08803  1_455   S
    C56    C55       1.39799      .   S
    C29    H7        1.08798  1_545   S
    C29    C28       1.39778      .   S
    C68    C55       1.39984      .   S
    C68    H20       1.08735      .   S
    C65    C28       1.39983      .   S
    C65    H19       1.08725      .   S
    C28    C27       1.49602      .   S
    C55    C54       1.49586      .   S
    C54    O98       1.27970  1_455   S
    C54    O99       1.27814      .   S
    C27    O80       1.27957  1_545   S
    C27    O81       1.27784      .   S
    O80    Zn3       2.02702      .   S
    O98    Zn4       2.02652      .   S
    O81    Zn1       2.02581      .   S
    O99    Zn0       2.02679      .   S
    O91    C42       1.27819      .   S
    O91    Zn4       2.02717      .   S
    O85    C33       1.27789      .   S
    O85    Zn3       2.02702      .   S
    H21    C71       1.08715      .   S
    C71    C43       1.39998      .   S
    C71    C34       1.40003      .   S
    C43    C42       1.49635      .   S
    C43    C44       1.39788      .   S
    C34    C33       1.49624      .   S
    C34    C35       1.39767      .   S
    C42    O90       1.27967  1_655   S
    C33    O84       1.27962  1_565   S
    Zn4    O78       2.02697      .   S
    Zn4    O87       2.02578      .   S
    Zn3    O96       2.02665      .   S
    Zn3    O93       2.02626      .   S
    C44    C69       1.40852      .   S
    C44    H12       1.08807  1_655   S
    C35    C69       1.40860      .   S
    C35    H9        1.08786  1_565   S
    C69    C70       1.41778      .   S
    O90    Zn0       2.02694      .   S
    O84    Zn1       2.02667      .   S
    C70    C61       1.21963  1_665   S
    C61    C60       1.41779      .   S
    O96    C51       1.27960  1_565   S
    O78    C24       1.27969  1_655   S
    H15    C53       1.08799  1_565   S
    H6     C26       1.08803  1_655   S
    C60    C53       1.40849      .   S
    C60    C26       1.40849      .   S
    C53    C52       1.39791      .   S
    C26    C25       1.39792      .   S
    Zn1    O97       2.02698      .   S
    Zn1    O92       2.02664      .   S
    Zn0    O79       2.02723      .   S
    Zn0    O86       2.02649      .   S
    C51    C52       1.49626      .   S
    C51    O97       1.27782      .   S
    C24    C25       1.49638      .   S
    C24    O79       1.27782      .   S
    C52    C62       1.39994      .   S
    C25    C62       1.39989      .   S
    C62    H18       1.08732      .   S
    O87    C36       1.27859      .   S
    O93    C45       1.27783      .   S
    O86    C36       1.27966  1_455   S
    O92    C45       1.27966  1_545   S
    C45    C46       1.49602      .   S
    C36    C37       1.49629      .   S
    H23    C77       1.08699      .   S
    H22    C74       1.08735      .   S
    C46    C77       1.39979      .   S
    C46    C47       1.39788      .   S
    C37    C74       1.39985      .   S
    C37    C38       1.39787      .   S
    H10    C38       1.08802  1_455   S
    H13    C47       1.08802  1_545   S
    C77    C40       1.40022      .   S
    C74    C49       1.39995      .   S
    C38    C72       1.40842      .   S
    C47    C75       1.40838      .   S
    O89    Zn5       2.02645      .   S
    O89    C39       1.27776      .   S
    O95    Zn5       2.02674      .   S
    O95    C48       1.27791      .   S
    C40    C39       1.49606      .   S
    C40    C41       1.39776      .   S
    C49    C48       1.49614      .   S
    C49    C50       1.39784      .   S
    C75    C41       1.40840      .   S
    C75    C76       1.41752      .   S
    C72    C50       1.40848      .   S
    C72    C73       1.41774      .   S
    Zn5    O82       2.02636      .   S
    Zn5    O100      2.02625      .   S
    Zn0    Zn4       2.56001  1_455   S
    Zn1    Zn3       2.56095  1_545   S
    Zn2    Zn5       2.56112  1_554   S
