# CIF file generated by openbabel 2.4.90, see http://openbabel.sf.net
data_I
_chemical_name_common ''
_cell_length_a 13.234
_cell_length_b 13.275
_cell_length_c 14.003
_cell_angle_alpha 83.848
_cell_angle_beta 78.344
_cell_angle_gamma 88.408
_space_group_name_H-M_alt 'P 1'
_space_group_name_Hall 'P 1'
loop_
    _symmetry_equiv_pos_as_xyz
    x,y,z
loop_
    _atom_site_label
    _atom_site_type_symbol
    _atom_site_fract_x
    _atom_site_fract_y
    _atom_site_fract_z
    _atom_site_occupancy
    H0      H    0.21909   0.68068   0.03492   1.000
    H1      H    0.40908   0.67988   0.02130   1.000
    H2      H    0.17300   0.66789   0.34852   1.000
    H3      H    0.56171   0.67669   0.10162   1.000
    H4      H    0.51682   0.66417   0.41472   1.000
    H5      H    0.32610   0.66254   0.42949   1.000
    H6      H    0.85371   0.00000   0.34868   1.000
    H7      H    0.89521   0.18929   0.01813   1.000
    H8      H    0.89241   0.00088   0.03636   1.000
    H9      H    0.88393   0.35108   0.09494   1.000
    H10     H    0.84806   0.34566   0.40707   1.000
    H11     H    0.84538   0.15701   0.42546   1.000
    H12     H    0.88425   0.83169   0.94869   1.000
    H13     H    0.87660   0.83811   0.77193   1.000
    H14     H    0.85291   0.51124   0.81249   1.000
    H15     H    0.87002   0.51852   0.98516   1.000
    H16     H    0.78711   0.82124   0.65514   1.000
    H17     H    0.78529   0.81349   0.47809   1.000
    H18     H    0.91205   0.52545   0.48229   1.000
    H19     H    0.92753   0.52230   0.65699   1.000
    H20     H    0.78091   0.31933   0.96511   1.000
    H21     H    0.59092   0.32013   0.97874   1.000
    H22     H    0.82700   0.33211   0.65151   1.000
    H23     H    0.43829   0.32333   0.89841   1.000
    H24     H    0.48318   0.33584   0.58531   1.000
    H25     H    0.67390   0.33747   0.57054   1.000
    H26     H    0.14629   0.00569   0.65135   1.000
    H27     H    0.10479   0.81073   0.98190   1.000
    H28     H    0.10759   0.99913   0.96367   1.000
    H29     H    0.11607   0.64893   0.90509   1.000
    H30     H    0.15194   0.65436   0.59297   1.000
    H31     H    0.15462   0.84300   0.57457   1.000
    H32     H    0.11574   0.16832   0.05134   1.000
    H33     H    0.12341   0.16190   0.22810   1.000
    H34     H    0.14709   0.48878   0.18755   1.000
    H35     H    0.12998   0.48149   0.01488   1.000
    H36     H    0.21290   0.17877   0.34489   1.000
    H37     H    0.21471   0.18652   0.52194   1.000
    H38     H    0.08795   0.47456   0.51774   1.000
    H39     H    0.07247   0.47771   0.34304   1.000
    C40     C    0.06995   0.67292   0.20119   1.000
    C41     C    0.18479   0.67424   0.19343   1.000
    C42     C    0.25226   0.67781   0.10022   1.000
    C43     C    0.35751   0.67729   0.09295   1.000
    C44     C    0.40126   0.67367   0.17802   1.000
    C45     C    0.33349   0.66993   0.27256   1.000
    C46     C    0.22562   0.67033   0.27753   1.000
    C47     C    0.50914   0.67389   0.17264   1.000
    C48     C    0.54988   0.67109   0.25653   1.000
    C49     C    0.48278   0.66691   0.34989   1.000
    C50     C    0.37740   0.66616   0.35759   1.000
    C51     C    0.66480   0.67263   0.24828   1.000
    C52     C    0.86975   0.87291   0.20396   1.000
    C53     C    0.87161   0.98671   0.19441   1.000
    C54     C    0.86190   0.03788   0.27701   1.000
    C55     C    0.86243   0.14504   0.26964   1.000
    C56     C    0.87291   0.20102   0.17445   1.000
    C57     C    0.88413   0.14683   0.09060   1.000
    C58     C    0.88341   0.04254   0.10042   1.000
    C59     C    0.87432   0.30821   0.16698   1.000
    C60     C    0.86576   0.35940   0.24942   1.000
    C61     C    0.85504   0.30366   0.34338   1.000
    C62     C    0.85354   0.19945   0.35312   1.000
    C63     C    0.86823   0.47309   0.24036   1.000
    C64     C    0.87776   0.76282   0.91461   1.000
    C65     C    0.87178   0.76537   0.81656   1.000
    C66     C    0.86389   0.67434   0.77615   1.000
    C67     C    0.85848   0.67256   0.67200   1.000
    C68     C    0.86192   0.58408   0.83841   1.000
    C69     C    0.86980   0.58726   0.93525   1.000
    C70     C    0.81790   0.75471   0.61961   1.000
    C71     C    0.81515   0.75083   0.52149   1.000
    C72     C    0.88698   0.58964   0.52382   1.000
    C73     C    0.89358   0.58822   0.62160   1.000
    C74     C    0.93005   0.32710   0.79885   1.000
    C75     C    0.81521   0.32576   0.80660   1.000
    C76     C    0.74774   0.32220   0.89982   1.000
    C77     C    0.64249   0.32272   0.90708   1.000
    C78     C    0.59874   0.32635   0.82202   1.000
    C79     C    0.66651   0.33008   0.72747   1.000
    C80     C    0.77438   0.32968   0.72250   1.000
    C81     C    0.49086   0.32612   0.82740   1.000
    C82     C    0.45012   0.32893   0.74351   1.000
    C83     C    0.51722   0.33310   0.65014   1.000
    C84     C    0.62260   0.33385   0.64244   1.000
    C85     C    0.33520   0.32738   0.75175   1.000
    C86     C    0.13024   0.12710   0.79608   1.000
    C87     C    0.12839   0.01330   0.80562   1.000
    C88     C    0.13810   0.96213   0.72302   1.000
    C89     C    0.13757   0.85497   0.73039   1.000
    C90     C    0.12709   0.79899   0.82558   1.000
    C91     C    0.11587   0.85318   0.90943   1.000
    C92     C    0.11659   0.95748   0.89961   1.000
    C93     C    0.12568   0.69180   0.83305   1.000
    C94     C    0.13424   0.64061   0.75061   1.000
    C95     C    0.14497   0.69636   0.65666   1.000
    C96     C    0.14646   0.80056   0.64692   1.000
    C97     C    0.13178   0.52693   0.75967   1.000
    C98     C    0.12224   0.23719   0.08543   1.000
    C99     C    0.12822   0.23464   0.18347   1.000
    C100    C    0.13611   0.32568   0.22388   1.000
    C101    C    0.14152   0.32745   0.32803   1.000
    C102    C    0.13808   0.41593   0.16162   1.000
    C103    C    0.13020   0.41275   0.06478   1.000
    C104    C    0.18210   0.24530   0.38042   1.000
    C105    C    0.18485   0.24918   0.47854   1.000
    C106    C    0.11302   0.41038   0.47621   1.000
    C107    C    0.10642   0.41179   0.37843   1.000
    N108    N    0.87769   0.67526   0.97322   1.000
    N109    N    0.84938   0.66967   0.47382   1.000
    N110    N    0.12231   0.32476   0.02681   1.000
    N111    N    0.15062   0.33034   0.52621   1.000
    O112    O    0.03672   0.68045   0.12126   1.000
    O113    O    0.01433   0.66215   0.28726   1.000
    O114    O    0.72031   0.67084   0.16290   1.000
    O115    O    0.69799   0.67554   0.32735   1.000
    O116    O    0.86225   0.82675   0.28974   1.000
    O117    O    0.87578   0.83104   0.12521   1.000
    O118    O    0.85467   0.51478   0.31998   1.000
    O119    O    0.88436   0.51945   0.15420   1.000
    O120    O    0.96328   0.31956   0.87878   1.000
    O121    O    0.00000   0.33786   0.71278   1.000
    O122    O    0.27969   0.32917   0.83713   1.000
    O123    O    0.30201   0.32447   0.67269   1.000
    O124    O    0.13775   0.17326   0.71030   1.000
    O125    O    0.12422   0.16897   0.87483   1.000
    O126    O    0.14534   0.48524   0.68005   1.000
    O127    O    0.11564   0.48056   0.84583   1.000
loop_
    _geom_bond_atom_site_label_1
    _geom_bond_atom_site_label_2
    _geom_bond_distance
    _geom_bond_site_symmetry_2
    _ccdc_geom_bond_type
    H35    C103      1.08862      .   S
    H7     C57       1.09125      .   S
    H1     C43       1.09135      .   S
    N110   C103      1.34924      .   S
    N110   C98       1.34916      .   S
    H0     C42       1.08799      .   S
    H8     C58       1.08826      .   S
    H32    C98       1.08883      .   S
    C103   C102      1.38606      .   S
    C98    C99       1.38786      .   S
    C57    C58       1.37664      .   S
    C57    C56       1.42231      .   S
    C43    C42       1.37585      .   S
    C43    C44       1.42169      .   S
    H9     C59       1.08947      .   S
    C42    C41       1.42172      .   S
    C58    C53       1.42136  1_545   S
    H3     C47       1.09009      .   S
    O112   C40       1.27619      .   S
    O117   C52       1.27462      .   S
    O119   C63       1.27442      .   S
    C102   H34       1.08641      .   S
    C102   C100      1.40176      .   S
    O114   C51       1.27275      .   S
    C59    C56       1.41594      .   S
    C59    C60       1.38508      .   S
    C47    C44       1.41444      .   S
    C47    C48       1.38474      .   S
    C56    C55       1.43762      .   S
    C44    C45       1.43812      .   S
    C99    C100      1.40315      .   S
    C99    H33       1.08864      .   S
    C41    C40       1.50213      .   S
    C41    C46       1.38705      .   S
    C53    C52       1.50269      .   S
    C53    C54       1.38535  1_565   S
    C40    O113      1.27484      .   S
    C52    O116      1.27502      .   S
    C100   C101      1.47731      .   S
    C63    C60       1.50155      .   S
    C63    O118      1.27566      .   S
    C51    C48       1.50234      .   S
    C51    O115      1.27544      .   S
    C60    C61       1.42140      .   S
    C48    C49       1.42096      .   S
    C55    C54       1.41528      .   S
    C55    C62       1.42218      .   S
    C45    C46       1.41508      .   S
    C45    C50       1.42236      .   S
    C54    H6        1.05958      .   S
    C46    H2        1.09038      .   S
    C101   C107      1.40551      .   S
    C101   C104      1.40388      .   S
    H39    C107      1.09007      .   S
    C61    C62       1.37576      .   S
    C61    H10       1.08869      .   S
    H36    C104      1.08900      .   S
    C49    C50       1.37700      .   S
    C49    H4        1.08892      .   S
    C62    H11       1.09178      .   S
    C50    H5        1.09183      .   S
    C107   C106      1.38764      .   S
    C104   C105      1.38829      .   S
    N109   C71       1.34768      .   S
    N109   C72       1.34856      .   S
    C106   H38       1.08940      .   S
    C106   N111      1.34856      .   S
    H17    C71       1.08988      .   S
    C105   H37       1.08987      .   S
    C105   N111      1.34769      .   S
    H18    C72       1.08941      .   S
    C71    C70       1.38830      .   S
    C72    C73       1.38764      .   S
    H25    C84       1.09183      .   S
    H31    C96       1.09179      .   S
    H24    C83       1.08890      .   S
    H30    C95       1.08869      .   S
    C70    H16       1.08900      .   S
    C70    C67       1.40388      .   S
    C73    H19       1.09007      .   S
    C73    C67       1.40550      .   S
    C84    C83       1.37701      .   S
    C84    C79       1.42236      .   S
    C96    C95       1.37574      .   S
    C96    C89       1.42218      .   S
    C83    C82       1.42096      .   S
    H26    C88       1.09016  1_545   S
    H22    C80       1.09037      .   S
    C95    C94       1.42141      .   S
    C67    C66       1.47733      .   S
    O123   C85       1.27543      .   S
    O126   C97       1.27567      .   S
    O124   C86       1.27502      .   S
    O121   C74       1.35997  1_455   S
    C80    C79       1.41510      .   S
    C80    C75       1.38706      .   S
    C88    C89       1.41527      .   S
    C88    C87       1.38535  1_565   S
    C79    C78       1.43810      .   S
    C89    C90       1.43763      .   S
    C82    C85       1.50234      .   S
    C82    C81       1.38475      .   S
    C94    C97       1.50155      .   S
    C94    C93       1.38508      .   S
    C85    O122      1.27275      .   S
    C97    O127      1.27442      .   S
    H13    C65       1.08863      .   S
    C66    C65       1.40314      .   S
    C66    C68       1.40177      .   S
    C86    C87       1.50271      .   S
    C86    O125      1.27462      .   S
    C74    C75       1.50213      .   S
    C74    O120      1.27619      .   S
    C87    C92       1.42135  1_545   S
    C75    C76       1.42172      .   S
    H14    C68       1.08641      .   S
    C65    C64       1.38786      .   S
    C78    C81       1.41445      .   S
    C78    C77       1.42170      .   S
    C90    C93       1.41594      .   S
    C90    C91       1.42231      .   S
    C81    H23       1.09008      .   S
    C93    H29       1.08947      .   S
    C68    C69       1.38604      .   S
    C92    C91       1.37665      .   S
    C92    H28       1.08825      .   S
    C76    C77       1.37583      .   S
    C76    H20       1.08801      .   S
    C77    H21       1.09135      .   S
    C91    H27       1.09124      .   S
    C64    H12       1.08882      .   S
    C64    N108      1.34916      .   S
    C69    N108      1.34924      .   S
    C69    H15       1.08862      .   S
