# CIF file generated by openbabel 2.4.90, see http://openbabel.sf.net
data_I
_chemical_name_common ''
_cell_length_a 13.234
_cell_length_b 13.275
_cell_length_c 14.003
_cell_angle_alpha 83.848
_cell_angle_beta 78.344
_cell_angle_gamma 88.408
_space_group_name_H-M_alt 'P 1'
_space_group_name_Hall 'P 1'
loop_
    _symmetry_equiv_pos_as_xyz
    x,y,z
loop_
    _atom_site_label
    _atom_site_type_symbol
    _atom_site_fract_x
    _atom_site_fract_y
    _atom_site_fract_z
    _atom_site_occupancy
    N0      N    0.86904   0.17330   0.22198   1.000
    N1      N    0.36746   0.67217   0.22501   1.000
    N2      N    0.86200   0.67284   0.72387   1.000
    N3      N    0.13800   0.32717   0.27617   1.000
    N4      N    0.13097   0.82697   0.77805   1.000
    N5      N    0.63319   0.32784   0.77503   1.000
    Zr6     Zr   0.13356   0.32675   0.77722   1.000
    O7      O    0.13163   0.32633   0.94598   1.000
    O8      O    0.13844   0.32759   0.60776   1.000
    Zr9     Zr   0.86644   0.67326   0.22281   1.000
    O10     O    0.86837   0.67368   0.05405   1.000
    O11     O    0.86156   0.67242   0.39228   1.000
    O12     O    0.01158   0.67274   0.22104   1.000
    O13     O    0.72203   0.67298   0.22615   1.000
    O14     O    0.86741   0.81772   0.22068   1.000
    O15     O    0.86747   0.52875   0.22439   1.000
    O16     O    0.13259   0.18235   0.77935   1.000
    O17     O    0.13253   0.47133   0.77565   1.000
    O18     O    0.98948   0.32727   0.77899   1.000
    O19     O    0.27813   0.32704   0.77389   1.000
loop_
    _geom_bond_atom_site_label_1
    _geom_bond_atom_site_label_2
    _geom_bond_distance
    _geom_bond_site_symmetry_2
    _ccdc_geom_bond_type
    Zr6    O7        2.35751      .   S
    N3     O7        4.64251  1_554   S
    Zr6    O8        2.35971      .   S
    N3     O8        4.64505      .   S
    Zr9    O10       2.35751      .   S
    N2     O10       4.64250  1_556   S
    Zr9    O11       2.35971      .   S
    N2     O11       4.64504      .   S
    Zr9    O12       1.91578  1_655   S
    N1     O12       4.72104      .   S
    Zr9    O13       1.90226      .   S
    N1     O13       4.69599      .   S
    Zr9    O14       1.91519      .   S
    N0     O14       4.72295  1_545   S
    Zr9    O15       1.91579      .   S
    N0     O15       4.72175      .   S
    Zr6    O16       1.91433      .   S
    N4     O16       4.72038  1_565   S
    Zr6    O17       1.91664      .   S
    N4     O17       4.72432      .   S
    Zr6    O18       1.90178  1_455   S
    N5     O18       4.72644      .   S
    Zr6    O19       1.90441      .   S
    N5     O19       4.70245      .   S
