# CIF file generated by openbabel 2.4.90, see http://openbabel.sf.net
data_I
_chemical_name_common ''
_cell_length_a 13.234
_cell_length_b 13.275
_cell_length_c 14.003
_cell_angle_alpha 83.848
_cell_angle_beta 78.344
_cell_angle_gamma 88.408
_space_group_name_H-M_alt 'P 1'
_space_group_name_Hall 'P 1'
loop_
    _symmetry_equiv_pos_as_xyz
    x,y,z
loop_
    _atom_site_label
    _atom_site_type_symbol
    _atom_site_fract_x
    _atom_site_fract_y
    _atom_site_fract_z
    _atom_site_occupancy
    Zr0     Zr   0.85335   0.67101   0.32542   1.000
    Zr1     Zr   0.87952   0.67551   0.12019   1.000
    Zr2     Zr   0.14665   0.32900   0.67461   1.000
    Zr3     Zr   0.12048   0.32450   0.87984   1.000
    O4      O    0.86644   0.67326   0.22281   1.000
    O5      O    0.13356   0.32675   0.77722   1.000
    N6      N    0.86904   0.17330   0.22198   1.000
    O7      O    0.86342   0.96109   0.26478   1.000
    O8      O    0.87334   0.96329   0.17234   1.000
    O9      O    0.86152   0.38310   0.27234   1.000
    O10     O    0.87549   0.38539   0.17959   1.000
    N11     N    0.36746   0.67217   0.22501   1.000
    O12     O    0.16279   0.67507   0.17287   1.000
    O13     O    0.15065   0.66937   0.26567   1.000
    O14     O    0.58369   0.67267   0.18328   1.000
    O15     O    0.57157   0.67272   0.27570   1.000
    N16     N    0.86200   0.67284   0.72387   1.000
    O17     O    0.87030   0.67411   0.88529   1.000
    O18     O    0.85669   0.67159   0.56174   1.000
    N19     N    0.13800   0.32717   0.27617   1.000
    O20     O    0.12970   0.32590   0.11474   1.000
    O21     O    0.14332   0.32842   0.43829   1.000
    N22     N    0.13097   0.82697   0.77805   1.000
    O23     O    0.13658   0.03905   0.73525   1.000
    O24     O    0.12666   0.03685   0.82769   1.000
    O25     O    0.13848   0.61704   0.72769   1.000
    O26     O    0.12451   0.61475   0.82044   1.000
    N27     N    0.63319   0.32784   0.77503   1.000
    O28     O    0.83754   0.32494   0.82717   1.000
    O29     O    0.85326   0.33064   0.73436   1.000
    O30     O    0.41664   0.32734   0.81676   1.000
    O31     O    0.42876   0.32729   0.72434   1.000
loop_
    _geom_bond_atom_site_label_1
    _geom_bond_atom_site_label_2
    _geom_bond_distance
    _geom_bond_site_symmetry_2
    _ccdc_geom_bond_type
    Zr0    O4        1.40928      .   S
    Zr1    O4        1.40928      .   S
    Zr2    O5        1.40927      .   S
    Zr3    O5        1.40927      .   S
    N6     O7        2.81649  1_545   S
    Zr0    O7        3.85353      .   S
    N6     O8        2.94100  1_545   S
    Zr1    O8        3.96118      .   S
    N6     O9        2.93952      .   S
    Zr0    O9        3.96554      .   S
    N6     O10       2.81447      .   S
    Zr1    O10       3.85149      .   S
    N11    O12       2.94251      .   S
    Zr1    O12       3.96391  1_655   S
    N11    O13       2.81057      .   S
    Zr0    O13       3.85345  1_655   S
    N11    O14       2.80262      .   S
    Zr1    O14       3.83574      .   S
    N11    O15       2.92866      .   S
    Zr0    O15       3.92852      .   S
    N16    O17       2.28699      .   S
    Zr1    O17       3.31824  1_554   S
    N16    O18       2.28730      .   S
    Zr0    O18       3.31926      .   S
    N19    O20       2.28699      .   S
    Zr3    O20       3.31824  1_556   S
    N19    O21       2.28730      .   S
    Zr2    O21       3.31927      .   S
    N22    O23       2.81482  1_565   S
    Zr2    O23       3.85186      .   S
    N22    O24       2.93933  1_565   S
    Zr3    O24       3.95950      .   S
    N22    O25       2.94119      .   S
    Zr2    O25       3.96721      .   S
    N22    O26       2.81614      .   S
    Zr3    O26       3.85316      .   S
    N27    O28       2.93833      .   S
    Zr3    O28       3.95967  1_455   S
    N27    O29       2.85284      .   S
    Zr2    O29       3.80295  1_455   S
    N27    O30       2.80684      .   S
    Zr3    O30       3.83993      .   S
    N27    O31       2.93285      .   S
    Zr2    O31       3.93276      .   S
