# CIF file generated by openbabel 2.4.90, see http://openbabel.sf.net
data_I
_chemical_name_common ''
_cell_length_a 13.234
_cell_length_b 13.275
_cell_length_c 14.003
_cell_angle_alpha 83.848
_cell_angle_beta 78.344
_cell_angle_gamma 88.408
_space_group_name_H-M_alt 'P 1'
_space_group_name_Hall 'P 1'
loop_
    _symmetry_equiv_pos_as_xyz
    x,y,z
loop_
    _atom_site_label
    _atom_site_type_symbol
    _atom_site_fract_x
    _atom_site_fract_y
    _atom_site_fract_z
    _atom_site_occupancy
    N0      N    0.86904   0.17330   0.22198   1.000
    N1      N    0.36746   0.67217   0.22501   1.000
    N2      N    0.86200   0.67284   0.72387   1.000
    N3      N    0.13800   0.32717   0.27617   1.000
    N4      N    0.13097   0.82697   0.77805   1.000
    N5      N    0.63319   0.32784   0.77503   1.000
    Zr6     Zr   0.13356   0.32675   0.77722   1.000
    O7      O    0.13163   0.32633   0.94598   1.000
    O8      O    0.12904   0.47075   0.79883   1.000
    O9      O    0.13011   0.18180   0.80246   1.000
    O10     O    0.98555   0.32585   0.80220   1.000
    O11     O    0.27510   0.32705   0.79699   1.000
    O12     O    0.99341   0.32870   0.75579   1.000
    O13     O    0.13844   0.32759   0.60776   1.000
    O14     O    0.13507   0.18290   0.75624   1.000
    O15     O    0.13602   0.47190   0.75246   1.000
    O16     O    0.28116   0.32702   0.75078   1.000
    Zr17    Zr   0.86644   0.67326   0.22281   1.000
    O18     O    0.87096   0.52933   0.20120   1.000
    O19     O    0.86837   0.67368   0.05405   1.000
    O20     O    0.72506   0.67297   0.20304   1.000
    O21     O    0.01461   0.67417   0.19784   1.000
    O22     O    0.86989   0.81827   0.19757   1.000
    O23     O    0.86156   0.67242   0.39228   1.000
    O24     O    0.00854   0.67132   0.24424   1.000
    O25     O    0.71900   0.67299   0.24925   1.000
    O26     O    0.86493   0.81717   0.24379   1.000
    O27     O    0.86398   0.52818   0.24757   1.000
loop_
    _geom_bond_atom_site_label_1
    _geom_bond_atom_site_label_2
    _geom_bond_distance
    _geom_bond_site_symmetry_2
    _ccdc_geom_bond_type
    Zr6    O7        2.35751      .   S
    N3     O7        4.64251  1_554   S
    Zr6    O8        1.96457      .   S
    N4     O8        4.70694      .   S
    Zr6    O9        1.91892      .   S
    N4     O9        4.75875  1_565   S
    Zr6    O10       1.91911  1_455   S
    N5     O10       4.75371      .   S
    Zr6    O11       1.94814      .   S
    N5     O11       4.68677      .   S
    Zr6    O12       1.93690  1_455   S
    N5     O12       4.72035      .   S
    Zr6    O13       2.35971      .   S
    N3     O13       4.64505      .   S
    Zr6    O14       1.96195      .   S
    N4     O14       4.70324  1_565   S
    Zr6    O15       1.92082      .   S
    N4     O15       4.76290      .   S
    Zr6    O16       1.91321      .   S
    N5     O16       4.73945      .   S
    Zr17   O18       1.96373      .   S
    N0     O18       4.70438      .   S
    Zr17   O19       2.35751      .   S
    N2     O19       4.64250  1_556   S
    Zr17   O20       1.94601      .   S
    N1     O20       4.68033      .   S
    Zr17   O21       1.92123  1_655   S
    N1     O21       4.76015      .   S
    Zr17   O22       1.91975      .   S
    N0     O22       4.76131  1_545   S
    Zr17   O23       2.35971      .   S
    N2     O23       4.64504      .   S
    Zr17   O24       1.96246  1_655   S
    N1     O24       4.70313      .   S
    Zr17   O25       1.91110      .   S
    N1     O25       4.73300      .   S
    Zr17   O26       1.96279      .   S
    N0     O26       4.70580  1_545   S
    Zr17   O27       1.91999      .   S
    N0     O27       4.76034      .   S
