# CIF file generated by openbabel 2.4.90, see http://openbabel.sf.net
data_I
_chemical_name_common ''
_cell_length_a 13.694
_cell_length_b 14.215
_cell_length_c 15.969
_cell_angle_alpha 90.002
_cell_angle_beta 89.985
_cell_angle_gamma 89.953
_space_group_name_H-M_alt 'P 1'
_space_group_name_Hall 'P 1'
loop_
    _symmetry_equiv_pos_as_xyz
    x,y,z
loop_
    _atom_site_label
    _atom_site_type_symbol
    _atom_site_fract_x
    _atom_site_fract_y
    _atom_site_fract_z
    _atom_site_occupancy
    Lv0     Lv   0.62461   0.00636   0.24433   1.000
    Lv1     Lv   0.37507   0.50623   0.25592   1.000
    Lv2     Lv   0.12512   0.99167   0.74451   1.000
    Lv3     Lv   0.62513   0.99167   0.74450   1.000
    Lv4     Lv   0.87463   0.49182   0.75588   1.000
    Lv5     Lv   0.12462   0.00635   0.24436   1.000
    Lv6     Lv   0.37465   0.49190   0.75576   1.000
    Lv7     Lv   0.87508   0.50632   0.25601   1.000
