# CIF file generated by openbabel 2.4.90, see http://openbabel.sf.net
data_I
_chemical_name_common ''
_cell_length_a 13.694
_cell_length_b 14.215
_cell_length_c 15.969
_cell_angle_alpha 90.002
_cell_angle_beta 89.985
_cell_angle_gamma 89.953
_space_group_name_H-M_alt 'P 1'
_space_group_name_Hall 'P 1'
loop_
    _symmetry_equiv_pos_as_xyz
    x,y,z
loop_
    _atom_site_label
    _atom_site_type_symbol
    _atom_site_fract_x
    _atom_site_fract_y
    _atom_site_fract_z
    _atom_site_occupancy
    Zr0     Zr   0.46590   0.23430   0.49984   1.000
    Zr1     Zr   0.96590   0.23430   0.49985   1.000
    Zr2     Zr   0.28380   0.76356   0.99989   1.000
    Zr3     Zr   0.78380   0.76356   0.99989   1.000
    Zr4     Zr   0.03382   0.73433   0.00047   1.000
    Zr5     Zr   0.53382   0.73434   0.00046   1.000
    Zr6     Zr   0.21588   0.26362   0.50075   1.000
    Zr7     Zr   0.71588   0.26362   0.50075   1.000
    Zr8     Zr   0.35460   0.19332   0.49821   1.000
    Zr9     Zr   0.85461   0.19331   0.49820   1.000
    Zr10    Zr   0.39505   0.80461   0.99710   1.000
    Zr11    Zr   0.89505   0.80459   0.99713   1.000
    Zr12    Zr   0.14511   0.69323   0.00310   1.000
    Zr13    Zr   0.64511   0.69324   0.00318   1.000
    Zr14    Zr   0.10452   0.30458   0.50258   1.000
    Zr15    Zr   0.60452   0.30459   0.50257   1.000
    O16     O    0.58947   0.71379   0.00182   1.000
    O17     O    0.46443   0.76947   0.99878   1.000
    O18     O    0.08946   0.71378   0.00179   1.000
    O19     O    0.96444   0.76946   0.99880   1.000
    O20     O    0.21445   0.72840   0.00149   1.000
    O21     O    0.71446   0.72840   0.00153   1.000
    O22     O    0.91025   0.21381   0.49902   1.000
    O23     O    0.78525   0.22847   0.49948   1.000
    O24     O    0.41025   0.21381   0.49902   1.000
    O25     O    0.28524   0.22847   0.49948   1.000
    O26     O    0.53521   0.26944   0.50121   1.000
    O27     O    0.03521   0.26944   0.50122   1.000
    O28     O    0.16020   0.28410   0.50167   1.000
    O29     O    0.66020   0.28410   0.50166   1.000
    O30     O    0.33942   0.78408   0.99849   1.000
    O31     O    0.83943   0.78407   0.99851   1.000
    N32     N    0.62461   0.00636   0.24433   1.000
    N33     N    0.37507   0.50623   0.25592   1.000
    N34     N    0.12512   0.99167   0.74451   1.000
    N35     N    0.62513   0.99167   0.74450   1.000
    N36     N    0.87463   0.49182   0.75588   1.000
    N37     N    0.12462   0.00635   0.24436   1.000
    N38     N    0.37465   0.49190   0.75576   1.000
    N39     N    0.87508   0.50632   0.25601   1.000
    C40     C    0.89064   0.64564   0.90801   1.000
    O41     O    0.88531   0.59373   0.85693   1.000
    O42     O    0.94730   0.66817   0.93348   1.000
    O43     O    0.84349   0.67943   0.93309   1.000
    C44     C    0.14049   0.85234   0.09197   1.000
    O45     O    0.09338   0.81855   0.06706   1.000
    O46     O    0.19718   0.82976   0.06646   1.000
    O47     O    0.13518   0.90432   0.14318   1.000
    C48     C    0.89063   0.65763   0.10175   1.000
    O49     O    0.94726   0.67697   0.07390   1.000
    O50     O    0.88549   0.60683   0.15377   1.000
    O51     O    0.84348   0.68839   0.07417   1.000
    C52     C    0.39064   0.64567   0.90798   1.000
    O53     O    0.34349   0.67944   0.93307   1.000
    O54     O    0.38531   0.59378   0.85682   1.000
    O55     O    0.44730   0.66819   0.93346   1.000
    C56     C    0.64052   0.84027   0.89865   1.000
    O57     O    0.59341   0.80948   0.92618   1.000
    O58     O    0.63542   0.89109   0.84666   1.000
    O59     O    0.69717   0.82094   0.92652   1.000
    C60     C    0.14050   0.84026   0.89863   1.000
    O61     O    0.09339   0.80948   0.92616   1.000
    O62     O    0.13541   0.89109   0.84666   1.000
    O63     O    0.19716   0.82094   0.92651   1.000
    C64     C    0.39063   0.65761   0.10172   1.000
    O65     O    0.34348   0.68838   0.07415   1.000
    O66     O    0.38548   0.60679   0.15372   1.000
    O67     O    0.44726   0.67696   0.07387   1.000
    C68     C    0.64049   0.85234   0.09223   1.000
    O69     O    0.59338   0.81855   0.06718   1.000
    O70     O    0.69718   0.82977   0.06679   1.000
    O71     O    0.63518   0.90433   0.14330   1.000
    C72     C    0.60913   0.15591   0.39996   1.000
    O73     O    0.61429   0.10568   0.34750   1.000
    O74     O    0.65626   0.18704   0.42739   1.000
    O75     O    0.55247   0.17571   0.42736   1.000
    C76     C    0.35901   0.35078   0.40683   1.000
    O77     O    0.36435   0.40321   0.35612   1.000
    O78     O    0.30237   0.32865   0.43273   1.000
    O79     O    0.40617   0.31730   0.43212   1.000
    C80     C    0.10933   0.14721   0.59370   1.000
    O81     O    0.15640   0.18073   0.56854   1.000
    O82     O    0.05262   0.16927   0.56774   1.000
    O83     O    0.11458   0.09476   0.64436   1.000
    C84     C    0.60933   0.14721   0.59174   1.000
    O85     O    0.65641   0.18072   0.56606   1.000
    O86     O    0.61459   0.09476   0.64339   1.000
    O87     O    0.55263   0.16927   0.56676   1.000
    C88     C    0.85901   0.35081   0.40689   1.000
    O89     O    0.90617   0.31733   0.43216   1.000
    O90     O    0.86436   0.40326   0.35620   1.000
    O91     O    0.80237   0.32867   0.43276   1.000
    C92     C    0.10913   0.15591   0.39997   1.000
    O93     O    0.11429   0.10568   0.34752   1.000
    O94     O    0.05247   0.17572   0.42737   1.000
    O95     O    0.15626   0.18703   0.42740   1.000
    C96     C    0.85905   0.34204   0.60054   1.000
    O97     O    0.80242   0.32229   0.57309   1.000
    O98     O    0.86422   0.39235   0.65289   1.000
    O99     O    0.90620   0.31083   0.57321   1.000
    C100    C    0.35905   0.34207   0.60049   1.000
    O101    O    0.36423   0.39240   0.65281   1.000
    O102    O    0.40620   0.31085   0.57315   1.000
    O103    O    0.30242   0.32230   0.57306   1.000
loop_
    _geom_bond_atom_site_label_1
    _geom_bond_atom_site_label_2
    _geom_bond_distance
    _geom_bond_site_symmetry_2
    _ccdc_geom_bond_type
    Zr5    O16       0.81613      .   S
    Zr13   O16       0.81613      .   S
    Zr5    O17       1.07343  1_554   S
    Zr10   O17       1.07343      .   S
    Zr4    O18       0.81611      .   S
    Zr12   O18       0.81611      .   S
    Zr4    O19       1.07334  1_454   S
    Zr11   O19       1.07334      .   S
    Zr12   O20       1.07384      .   S
    Zr2    O20       1.07384  1_556   S
    Zr13   O21       1.07378      .   S
    Zr3    O21       1.07378  1_556   S
    Zr9    O22       0.81613      .   S
    Zr1    O22       0.81613      .   S
    Zr9    O23       1.07310      .   S
    Zr7    O23       1.07310      .   S
    Zr8    O24       0.81613      .   S
    Zr0    O24       0.81613      .   S
    Zr8    O25       1.07305      .   S
    Zr6    O25       1.07305      .   S
    Zr0    O26       1.07318      .   S
    Zr15   O26       1.07318      .   S
    Zr1    O27       1.07315  1_655   S
    Zr14   O27       1.07315      .   S
    Zr6    O28       0.81610      .   S
    Zr14   O28       0.81610      .   S
    Zr7    O29       0.81610      .   S
    Zr15   O29       0.81610      .   S
    Zr10   O30       0.81617      .   S
    Zr2    O30       0.81617      .   S
    Zr11   O31       0.81615      .   S
    Zr3    O31       0.81615      .   S
    C40    O41       1.10247      .   S
    N36    O41       2.17351      .   S
    C40    O42       0.93306      .   S
    Zr4    O42       1.85336  1_454   S
    C40    O43       0.89851      .   S
    Zr3    O43       1.79836      .   S
    C44    O45       0.89761      .   S
    Zr4    O45       1.79753      .   S
    C44    O46       0.93339      .   S
    Zr2    O46       1.84931  1_556   S
    C44    O47       1.10447      .   S
    N37    O47       2.17581  1_545   S
    C48    O49       0.93543      .   S
    Zr4    O49       1.85624  1_455   S
    C48    O50       1.10294      .   S
    N39    O50       2.17430      .   S
    C48    O51       0.89540      .   S
    Zr3    O51       1.79328  1_556   S
    C52    O53       0.89851      .   S
    Zr2    O53       1.79843      .   S
    C52    O54       1.10318      .   S
    N38    O54       2.17336      .   S
    C52    O55       0.93306      .   S
    Zr5    O55       1.85339  1_554   S
    C56    O57       0.89513      .   S
    Zr5    O57       1.79306  1_554   S
    C56    O58       1.10272      .   S
    N35    O58       2.17379      .   S
    C56    O59       0.93557      .   S
    Zr3    O59       1.85599      .   S
    C60    O61       0.89510      .   S
    Zr4    O61       1.79330  1_554   S
    C60    O62       1.10254      .   S
    N34    O62       2.17368      .   S
    C60    O63       0.93565      .   S
    Zr2    O63       1.85614      .   S
    C64    O65       0.89538      .   S
    Zr2    O65       1.79321  1_556   S
    C64    O66       1.10294      .   S
    N33    O66       2.17429      .   S
    C64    O67       0.93543      .   S
    Zr5    O67       1.85624      .   S
    C68    O69       0.89856      .   S
    Zr5    O69       1.79880      .   S
    C68    O70       0.93293      .   S
    Zr3    O70       1.85243  1_556   S
    C68    O71       1.10285      .   S
    N32    O71       2.17416  1_545   S
    C72    O73       1.10288      .   S
    N32    O73       2.17411      .   S
    C72    O74       0.89708      .   S
    Zr7    O74       1.79611      .   S
    C72    O75       0.93397      .   S
    Zr0    O75       1.85364      .   S
    C76    O77       1.10291      .   S
    N33    O77       2.17418      .   S
    C76    O78       0.93368      .   S
    Zr6    O78       1.85432      .   S
    C76    O79       0.89797      .   S
    Zr0    O79       1.79711      .   S
    C80    O81       0.89685      .   S
    Zr6    O81       1.79584      .   S
    C80    O82       0.93429      .   S
    Zr1    O82       1.85454  1_655   S
    C80    O83       1.10256      .   S
    N34    O83       2.17390  1_565   S
    C84    O85       0.90056      .   S
    Zr7    O85       1.77218      .   S
    C84    O86       1.11421      .   S
    N35    O86       2.18529  1_565   S
    C84    O87       0.92742      .   S
    Zr0    O87       1.84554      .   S
    C88    O89       0.89788      .   S
    Zr1    O89       1.79697      .   S
    C88    O90       1.10295      .   S
    N39    O90       2.17442      .   S
    C88    O91       0.93357      .   S
    Zr7    O91       1.85417      .   S
    C92    O93       1.10277      .   S
    N37    O93       2.17413      .   S
    C92    O94       0.93398      .   S
    Zr1    O94       1.85373  1_655   S
    C92    O95       0.89708      .   S
    Zr6    O95       1.79606      .   S
    C96    O97       0.93429      .   S
    Zr7    O97       1.85381      .   S
    C96    O98       1.10254      .   S
    N36    O98       2.17357      .   S
    C96    O99       0.89643      .   S
    Zr1    O99       1.79492      .   S
    C100   O101      1.10239      .   S
    N38    O101      2.17339      .   S
    C100   O102      0.89650      .   S
    Zr0    O102      1.79468      .   S
    C100   O103      0.93418      .   S
    Zr6    O103      1.85364      .   S
