# CIF file generated by openbabel 2.4.90, see http://openbabel.sf.net
data_I
_chemical_name_common ''
_cell_length_a 12.754
_cell_length_b 12.737
_cell_length_c 25.661
_cell_angle_alpha 90.004
_cell_angle_beta 90.026
_cell_angle_gamma 89.9
_space_group_name_H-M_alt 'P 1'
_space_group_name_Hall 'P 1'
loop_
    _symmetry_equiv_pos_as_xyz
    x,y,z
loop_
    _atom_site_label
    _atom_site_type_symbol
    _atom_site_fract_x
    _atom_site_fract_y
    _atom_site_fract_z
    _atom_site_occupancy
    C0      C    0.10137   0.92943   0.33492   1.000
    C1      C    0.39762   0.57067   0.33630   1.000
    C2      C    0.57270   0.10026   0.33499   1.000
    C3      C    0.92902   0.39790   0.33623   1.000
    C4      C    0.39774   0.93092   0.16368   1.000
    C5      C    0.10100   0.57078   0.16505   1.000
    C6      C    0.92909   0.10423   0.16363   1.000
    C7      C    0.57124   0.39739   0.16372   1.000
    C8      C    0.89857   0.07060   0.66500   1.000
    C9      C    0.60236   0.42933   0.66369   1.000
    C10     C    0.42726   0.89974   0.66498   1.000
    C11     C    0.07092   0.60211   0.66373   1.000
    C12     C    0.60222   0.06910   0.83630   1.000
    C13     C    0.89898   0.42922   0.83495   1.000
    C14     C    0.07087   0.89577   0.83633   1.000
    C15     C    0.42867   0.60259   0.83625   1.000
