# CIF file generated by openbabel 2.4.90, see http://openbabel.sf.net
data_I
_chemical_name_common ''
_cell_length_a 12.754
_cell_length_b 12.737
_cell_length_c 25.661
_cell_angle_alpha 90.004
_cell_angle_beta 90.026
_cell_angle_gamma 89.9
_space_group_name_H-M_alt 'P 1'
_space_group_name_Hall 'P 1'
loop_
    _symmetry_equiv_pos_as_xyz
    x,y,z
loop_
    _atom_site_label
    _atom_site_type_symbol
    _atom_site_fract_x
    _atom_site_fract_y
    _atom_site_fract_z
    _atom_site_occupancy
    Zr0     Zr   0.03910   0.93287   0.43804   1.000
    Zr1     Zr   0.46213   0.56831   0.43830   1.000
    Zr2     Zr   0.56874   0.03679   0.43799   1.000
    Zr3     Zr   0.93261   0.46237   0.43817   1.000
    Zr4     Zr   0.46224   0.93301   0.06182   1.000
    Zr5     Zr   0.03855   0.56829   0.06199   1.000
    Zr6     Zr   0.93265   0.03902   0.06188   1.000
    Zr7     Zr   0.56860   0.46224   0.06170   1.000
    Zr8     Zr   0.96086   0.06715   0.56193   1.000
    Zr9     Zr   0.53787   0.43172   0.56168   1.000
    Zr10    Zr   0.43124   0.96324   0.56199   1.000
    Zr11    Zr   0.06738   0.53765   0.56179   1.000
    Zr12    Zr   0.53774   0.06698   0.93817   1.000
    Zr13    Zr   0.96144   0.43168   0.93799   1.000
    Zr14    Zr   0.06735   0.96093   0.93808   1.000
    Zr15    Zr   0.43140   0.53776   0.93820   1.000
    N16     N    0.75016   0.06903   0.75058   1.000
    N17     N    0.75043   0.43017   0.74939   1.000
    N18     N    0.07055   0.74893   0.75003   1.000
    N19     N    0.42858   0.75097   0.75053   1.000
    N20     N    0.24978   0.93100   0.24939   1.000
    N21     N    0.57134   0.24902   0.24943   1.000
    N22     N    0.92939   0.25109   0.24991   1.000
    N23     N    0.24954   0.56980   0.25059   1.000
    C24     C    0.49476   0.69988   0.06342   1.000
    O25     O    0.51457   0.61577   0.05974   1.000
    O26     O    0.47389   0.64209   0.01612   1.000
    O27     O    0.48236   0.77708   0.05925   1.000
    C28     C    0.91836   0.42891   0.84747   1.000
    O29     O    0.86192   0.42943   0.81432   1.000
    O30     O    0.91512   0.43560   0.87837   1.000
    C31     C    0.42850   0.58322   0.84886   1.000
    O32     O    0.42862   0.63958   0.81561   1.000
    O33     O    0.43516   0.58596   0.87940   1.000
    C34     C    0.99452   0.19908   0.93616   1.000
    O35     O    0.97434   0.14193   0.98364   1.000
    O36     O    0.98207   0.27616   0.94039   1.000
    O37     O    0.01401   0.11485   0.93993   1.000
    C38     C    0.00536   0.80085   0.06372   1.000
    O39     O    0.98584   0.88509   0.05999   1.000
    O40     O    0.02560   0.85801   0.01628   1.000
    O41     O    0.01784   0.72378   0.05953   1.000
    C42     C    0.70005   0.00485   0.06334   1.000
    O43     O    0.61593   0.98558   0.05971   1.000
    O44     O    0.64223   0.02515   0.01603   1.000
    O45     O    0.77709   0.01755   0.05918   1.000
    C46     C    0.19916   0.50447   0.93667   1.000
    O47     O    0.14188   0.52529   0.98404   1.000
    O48     O    0.11507   0.48496   0.94029   1.000
    O49     O    0.27611   0.51698   0.94082   1.000
    C50     C    0.50521   0.30008   0.93653   1.000
    O51     O    0.51759   0.22290   0.94072   1.000
    O52     O    0.48543   0.38421   0.94021   1.000
    O53     O    0.52609   0.35789   0.98383   1.000
    C54     C    0.29998   0.99487   0.93658   1.000
    O55     O    0.22294   0.98222   0.94075   1.000
    O56     O    0.38408   0.01423   0.94023   1.000
    O57     O    0.35778   0.97468   0.98392   1.000
    C58     C    0.92886   0.08497   0.15095   1.000
    O59     O    0.92912   0.14081   0.18441   1.000
    O60     O    0.93537   0.08773   0.12046   1.000
    C61     C    0.41704   0.93070   0.15104   1.000
    O62     O    0.36084   0.93090   0.18431   1.000
    O63     O    0.41422   0.93726   0.12053   1.000
    C64     C    0.57141   0.41677   0.15109   1.000
    O65     O    0.57129   0.36040   0.18435   1.000
    O66     O    0.56475   0.41403   0.12052   1.000
    C67     C    0.80088   0.49530   0.06335   1.000
    O68     O    0.85815   0.47453   0.01597   1.000
    O69     O    0.88496   0.51488   0.05972   1.000
    O70     O    0.72392   0.48283   0.05918   1.000
    C71     C    0.58292   0.06933   0.84894   1.000
    O72     O    0.58575   0.06277   0.87946   1.000
    O73     O    0.63911   0.06913   0.81567   1.000
    C74     C    0.07110   0.91503   0.84901   1.000
    O75     O    0.06459   0.91226   0.87949   1.000
    O76     O    0.07084   0.85919   0.81554   1.000
    C77     C    0.08162   0.57111   0.15253   1.000
    O78     O    0.08487   0.56441   0.12163   1.000
    O79     O    0.13806   0.57056   0.18567   1.000
    C80     C    0.57299   0.08084   0.34751   1.000
    O81     O    0.57238   0.13737   0.31436   1.000
    O82     O    0.56638   0.08395   0.37843   1.000
    C83     C    0.49433   0.80048   0.43691   1.000
    O84     O    0.51420   0.88425   0.44043   1.000
    O85     O    0.48205   0.72356   0.44105   1.000
    O86     O    0.47354   0.85846   0.48418   1.000
    C87     C    0.80084   0.00375   0.43656   1.000
    O88     O    0.88509   0.98500   0.44021   1.000
    O89     O    0.85793   0.02431   0.48397   1.000
    O90     O    0.72388   0.01591   0.44070   1.000
    C91     C    0.69979   0.49544   0.43663   1.000
    O92     O    0.61570   0.51490   0.44030   1.000
    O93     O    0.64209   0.47459   0.48390   1.000
    O94     O    0.77690   0.48305   0.44082   1.000
    C95     C    0.30019   0.50455   0.56334   1.000
    O96     O    0.22308   0.51695   0.55915   1.000
    O97     O    0.35790   0.52542   0.51607   1.000
    O98     O    0.38428   0.48510   0.55968   1.000
    C99     C    0.92887   0.41715   0.34889   1.000
    O100    O    0.92910   0.36133   0.31543   1.000
    O101    O    0.93541   0.41417   0.37942   1.000
    C102    C    0.50564   0.19955   0.56308   1.000
    O103    O    0.48577   0.11579   0.55955   1.000
    O104    O    0.52644   0.14157   0.51580   1.000
    O105    O    0.51793   0.27648   0.55894   1.000
    C106    C    0.99435   0.29993   0.56338   1.000
    O107    O    0.01397   0.38406   0.55973   1.000
    O108    O    0.97414   0.35781   0.51606   1.000
    O109    O    0.98172   0.22285   0.55922   1.000
    C110    C    0.41693   0.57101   0.34894   1.000
    O111    O    0.36070   0.57050   0.31567   1.000
    O112    O    0.41414   0.56440   0.37950   1.000
    C113    C    0.00561   0.70008   0.43655   1.000
    O114    O    0.02584   0.64220   0.48388   1.000
    O115    O    0.98595   0.61596   0.44021   1.000
    O116    O    0.01825   0.77717   0.44072   1.000
    C117    C    0.19912   0.99627   0.56342   1.000
    O118    O    0.11487   0.01502   0.55976   1.000
    O119    O    0.14204   0.97569   0.51601   1.000
    O120    O    0.27609   0.98411   0.55928   1.000
    C121    C    0.08201   0.92907   0.34745   1.000
    O122    O    0.13840   0.92980   0.31430   1.000
    O123    O    0.08536   0.93566   0.37839   1.000
    C124    C    0.58305   0.42901   0.65105   1.000
    O125    O    0.63928   0.42950   0.68432   1.000
    O126    O    0.58585   0.43562   0.62049   1.000
    C127    C    0.91793   0.07098   0.65248   1.000
    O128    O    0.86154   0.07024   0.68564   1.000
    O129    O    0.91459   0.06437   0.62156   1.000
    C130    C    0.42699   0.91917   0.65245   1.000
    O131    O    0.42758   0.86263   0.68561   1.000
    O132    O    0.43360   0.91606   0.62154   1.000
    C133    C    0.07110   0.58287   0.65105   1.000
    O134    O    0.07086   0.63869   0.68452   1.000
    O135    O    0.06457   0.58584   0.62052   1.000
loop_
    _geom_bond_atom_site_label_1
    _geom_bond_atom_site_label_2
    _geom_bond_distance
    _geom_bond_site_symmetry_2
    _ccdc_geom_bond_type
    C24    O25       1.10436      .   S
    Zr7    O25       2.07294      .   S
    C24    O26       1.44440      .   S
    Zr15   O26       2.46146  1_556   S
    C24    O27       1.00128      .   S
    Zr4    O27       2.00325      .   S
    C28    O29       1.11423      .   S
    N17    O29       2.18989      .   S
    C28    O30       0.79839      .   S
    Zr13   O30       1.64059      .   S
    C31    O32       1.11518      .   S
    N19    O32       2.19119      .   S
    C31    O33       0.78915      .   S
    Zr15   O33       1.62968      .   S
    C34    O35       1.44278      .   S
    Zr6    O35       2.45665  1_554   S
    C34    O36       1.00019      .   S
    Zr13   O36       1.99873      .   S
    C34    O37       1.10505  1_655   S
    Zr14   O37       2.07450  1_565   S
    C38    O39       1.10517  1_455   S
    Zr6    O39       2.07414  1_545   S
    C38    O40       1.44221      .   S
    Zr14   O40       2.45616  1_556   S
    C38    O41       1.00001      .   S
    Zr5    O41       1.99844      .   S
    C42    O43       1.10485  1_545   S
    Zr4    O43       2.07332      .   S
    C42    O44       1.44346      .   S
    Zr12   O44       2.45904  1_556   S
    C42    O45       1.00178      .   S
    Zr6    O45       2.00443      .   S
    C46    O47       1.44295      .   S
    Zr5    O47       2.45706  1_554   S
    C46    O48       1.10523      .   S
    Zr13   O48       2.07550  1_655   S
    C46    O49       1.00026      .   S
    Zr15   O49       1.99974      .   S
    C50    O51       1.00125      .   S
    Zr12   O51       2.00303      .   S
    C50    O52       1.10437      .   S
    Zr15   O52       2.07311      .   S
    C50    O53       1.44435      .   S
    Zr7    O53       2.46062  1_554   S
    C54    O55       1.00180      .   S
    Zr14   O55       2.00445      .   S
    C54    O56       1.10494  1_565   S
    Zr12   O56       2.07353      .   S
    C54    O57       1.44356      .   S
    Zr4    O57       2.45915  1_554   S
    C58    O59       1.11500      .   S
    N22    O59       2.19038      .   S
    C58    O60       0.78757      .   S
    Zr6    O60       1.62661      .   S
    C61    O62       1.11488      .   S
    N20    O62       2.19038      .   S
    C61    O63       0.78834      .   S
    Zr4    O63       1.62732      .   S
    C64    O65       1.11530      .   S
    N21    O65       2.19119      .   S
    C64    O66       0.78976      .   S
    Zr7    O66       1.63040      .   S
    C67    O68       1.44283      .   S
    Zr13   O68       2.45701  1_556   S
    C67    O69       1.10528      .   S
    Zr5    O69       2.07566  1_455   S
    C67    O70       1.00034      .   S
    Zr7    O70       1.99976      .   S
    C71    O72       0.78837      .   S
    Zr12   O72       1.62741      .   S
    C71    O73       1.11493      .   S
    N16    O73       2.19043      .   S
    C74    O75       0.78751      .   S
    Zr14   O75       1.62652      .   S
    C74    O76       1.11510      .   S
    N18    O76       2.19050      .   S
    C77    O78       0.79853      .   S
    Zr5    O78       1.64091      .   S
    C77    O79       1.11407      .   S
    N23    O79       2.18957      .   S
    C80    O81       1.11456      .   S
    N21    O81       2.19064      .   S
    C80    O82       0.79909      .   S
    Zr2    O82       1.64239      .   S
    C83    O84       1.10079      .   S
    Zr2    O84       2.06578  1_545   S
    C83    O85       0.99814      .   S
    Zr1    O85       1.99531      .   S
    C83    O86       1.44458      .   S
    Zr10   O86       2.46109      .   S
    C87    O88       1.10427  1_545   S
    Zr0    O88       2.07314  1_455   S
    C87    O89       1.44185      .   S
    Zr8    O89       2.45426      .   S
    C87    O90       0.99915      .   S
    Zr2    O90       1.99718      .   S
    C91    O92       1.10438      .   S
    Zr1    O92       2.07293      .   S
    C91    O93       1.44399      .   S
    Zr9    O93       2.46039      .   S
    C91    O94       1.00155      .   S
    Zr3    O94       2.00393      .   S
    C95    O96       1.00154      .   S
    Zr11   O96       2.00394      .   S
    C95    O97       1.44393      .   S
    Zr1    O97       2.46047      .   S
    C95    O98       1.10439      .   S
    Zr9    O98       2.07294      .   S
    C99    O100      1.11484      .   S
    N22    O100      2.19028      .   S
    C99    O101      0.78880      .   S
    Zr3    O101      1.62805      .   S
    C102   O103      1.10079      .   S
    Zr10   O103      2.06576  1_565   S
    C102   O104      1.44461      .   S
    Zr2    O104      2.46114      .   S
    C102   O105      0.99815      .   S
    Zr9    O105      1.99530      .   S
    C106   O107      1.10471  1_655   S
    Zr11   O107      2.07328      .   S
    C106   O108      1.44352      .   S
    Zr3    O108      2.45884      .   S
    C106   O109      1.00098      .   S
    Zr8    O109      2.00245      .   S
    C110   O111      1.11481      .   S
    N23    O111      2.19008      .   S
    C110   O112      0.78951      .   S
    Zr1    O112      1.62891      .   S
    C113   O114      1.44372      .   S
    Zr11   O114      2.45924      .   S
    C113   O115      1.10483  1_455   S
    Zr3    O115      2.07299      .   S
    C113   O116      1.00104      .   S
    Zr0    O116      2.00253      .   S
    C117   O118      1.10426  1_565   S
    Zr8    O118      2.07312  1_655   S
    C117   O119      1.44193      .   S
    Zr0    O119      2.45435      .   S
    C117   O120      0.99920      .   S
    Zr10   O120      1.99731      .   S
    C121   O122      1.11420      .   S
    N20    O122      2.18976      .   S
    C121   O123      0.79953      .   S
    Zr0    O123      1.64101      .   S
    C124   O125      1.11468      .   S
    N17    O125      2.18992      .   S
    C124   O126      0.78958      .   S
    Zr9    O126      1.62905      .   S
    C127   O128      1.11444      .   S
    N16    O128      2.19023      .   S
    C127   O129      0.79906      .   S
    Zr8    O129      1.64064      .   S
    C130   O131      1.11470      .   S
    N19    O131      2.19069      .   S
    C130   O132      0.79883      .   S
    Zr10   O132      1.64222      .   S
    C133   O134      1.11494      .   S
    N18    O134      2.19026      .   S
    C133   O135      0.78855      .   S
    Zr11   O135      1.62772      .   S
