# CIF file generated by openbabel 2.4.90, see http://openbabel.sf.net
data_I
_chemical_name_common ''
_cell_length_a 13.417
_cell_length_b 13.831
_cell_length_c 16.197
_cell_angle_alpha 90.001
_cell_angle_beta 90.054
_cell_angle_gamma 90.106
_space_group_name_H-M_alt 'P 1'
_space_group_name_Hall 'P 1'
loop_
    _symmetry_equiv_pos_as_xyz
    x,y,z
loop_
    _atom_site_label
    _atom_site_type_symbol
    _atom_site_fract_x
    _atom_site_fract_y
    _atom_site_fract_z
    _atom_site_occupancy
    C0      C    0.99999   0.00000   0.00002   1.000
    C1      C    0.50001   0.00000   0.99998   1.000
    C2      C    0.75000   0.50002   0.50000   1.000
    C3      C    0.25000   0.50001   0.50001   1.000
    C4      C    0.75000   0.00001   0.00001   1.000
    C5      C    0.24999   0.99999   0.99998   1.000
    C6      C    0.99997   0.50001   0.50007   1.000
    C7      C    0.50004   0.50002   0.49994   1.000
    C8      C    0.62538   0.12615   0.01557   1.000
    C9      C    0.12538   0.12641   0.01461   1.000
    C10     C    0.78416   0.70320   0.31778   1.000
    C11     C    0.28389   0.70330   0.31813   1.000
    C12     C    0.78426   0.82027   0.19897   1.000
    C13     C    0.28428   0.82039   0.19930   1.000
    C14     C    0.46586   0.67943   0.30058   1.000
    C15     C    0.00000   0.67935   0.30025   1.000
    C16     C    0.46613   0.79674   0.18186   1.000
    C17     C    0.00000   0.79665   0.18153   1.000
    C18     C    0.62482   0.37426   0.51677   1.000
    C19     C    0.12477   0.37299   0.51197   1.000
    C20     C    0.46513   0.79808   0.81554   1.000
    C21     C    0.00000   0.79813   0.81526   1.000
    C22     C    0.46625   0.68098   0.69671   1.000
    C23     C    0.00000   0.68107   0.69642   1.000
    C24     C    0.78385   0.81942   0.80280   1.000
    C25     C    0.28379   0.81914   0.80318   1.000
    C26     C    0.78481   0.70213   0.68407   1.000
    C27     C    0.28497   0.70182   0.68448   1.000
    C28     C    0.87461   0.87406   0.98385   1.000
    C29     C    0.37463   0.87338   0.98635   1.000
    C30     C    0.71583   0.29677   0.68217   1.000
    C31     C    0.21613   0.29674   0.68190   1.000
    C32     C    0.71571   0.17971   0.80097   1.000
    C33     C    0.21576   0.17966   0.80074   1.000
    C34     C    0.03411   0.32064   0.69946   1.000
    C35     C    0.53436   0.32066   0.69974   1.000
    C36     C    0.03383   0.20334   0.81819   1.000
    C37     C    0.53384   0.20335   0.81844   1.000
    C38     C    0.87519   0.62590   0.48364   1.000
    C39     C    0.37523   0.62702   0.48796   1.000
    C40     C    0.03492   0.20198   0.18448   1.000
    C41     C    0.53494   0.20189   0.18474   1.000
    C42     C    0.03378   0.31908   0.30330   1.000
    C43     C    0.53364   0.31894   0.30359   1.000
    C44     C    0.71620   0.18059   0.19721   1.000
    C45     C    0.21617   0.18093   0.19684   1.000
    C46     C    0.71523   0.29787   0.31595   1.000
    C47     C    0.21501   0.29824   0.31553   1.000
    C48     C    0.62458   0.61616   0.38738   1.000
    C49     C    0.12425   0.61624   0.38745   1.000
    C50     C    0.62492   0.68507   0.31637   1.000
    C51     C    0.12468   0.68510   0.31639   1.000
    C52     C    0.71498   0.72431   0.28769   1.000
    C53     C    0.21480   0.72439   0.28787   1.000
    C54     C    0.62560   0.88392   0.11256   1.000
    C55     C    0.12574   0.88394   0.11257   1.000
    C56     C    0.62522   0.81503   0.18377   1.000
    C57     C    0.12528   0.81505   0.18377   1.000
    C58     C    0.71516   0.78885   0.22187   1.000
    C59     C    0.21512   0.78892   0.22205   1.000
    C60     C    0.53501   0.71115   0.27810   1.000
    C61     C    0.03488   0.71112   0.27793   1.000
    C62     C    0.53515   0.77573   0.21230   1.000
    C63     C    0.03515   0.77569   0.21212   1.000
    C64     C    0.62405   0.88380   0.88743   1.000
    C65     C    0.12388   0.88375   0.88745   1.000
    C66     C    0.62450   0.81496   0.81637   1.000
    C67     C    0.12440   0.81487   0.81641   1.000
    C68     C    0.53466   0.77646   0.78638   1.000
    C69     C    0.03461   0.77645   0.78625   1.000
    C70     C    0.62604   0.61619   0.61252   1.000
    C71     C    0.12622   0.61609   0.61256   1.000
    C72     C    0.62557   0.68505   0.68374   1.000
    C73     C    0.12571   0.68494   0.68379   1.000
    C74     C    0.53517   0.71192   0.72056   1.000
    C75     C    0.03523   0.71191   0.72042   1.000
    C76     C    0.71487   0.78818   0.77938   1.000
    C77     C    0.21485   0.78798   0.77961   1.000
    C78     C    0.71543   0.72362   0.71358   1.000
    C79     C    0.21551   0.72340   0.71381   1.000
    C80     C    0.87540   0.38387   0.61261   1.000
    C81     C    0.37577   0.38379   0.61256   1.000
    C82     C    0.87506   0.31496   0.68363   1.000
    C83     C    0.37535   0.31493   0.68362   1.000
    C84     C    0.78500   0.27569   0.71228   1.000
    C85     C    0.28523   0.27565   0.71215   1.000
    C86     C    0.87436   0.11612   0.88745   1.000
    C87     C    0.37430   0.11607   0.88743   1.000
    C88     C    0.87474   0.18500   0.81624   1.000
    C89     C    0.37476   0.18497   0.81624   1.000
    C90     C    0.78482   0.21115   0.77810   1.000
    C91     C    0.28492   0.21111   0.77797   1.000
    C92     C    0.96496   0.28890   0.72192   1.000
    C93     C    0.46516   0.28889   0.72206   1.000
    C94     C    0.96482   0.22432   0.78773   1.000
    C95     C    0.46489   0.22431   0.78787   1.000
    C96     C    0.87601   0.11623   0.11259   1.000
    C97     C    0.37607   0.11631   0.11254   1.000
    C98     C    0.87555   0.18507   0.18364   1.000
    C99     C    0.37556   0.18518   0.18359   1.000
    C100    C    0.96539   0.22359   0.21363   1.000
    C101    C    0.46536   0.22358   0.21376   1.000
    C102    C    0.87398   0.38386   0.38748   1.000
    C103    C    0.37377   0.38395   0.38745   1.000
    C104    C    0.87445   0.31499   0.31627   1.000
    C105    C    0.37427   0.31510   0.31622   1.000
    C106    C    0.96486   0.28813   0.27945   1.000
    C107    C    0.46475   0.28812   0.27958   1.000
    C108    C    0.78518   0.21183   0.22063   1.000
    C109    C    0.28512   0.21207   0.22040   1.000
    C110    C    0.78461   0.27640   0.28643   1.000
    C111    C    0.28446   0.27665   0.28620   1.000
    C112    C    0.62510   0.05845   0.99995   1.000
    C113    C    0.12509   0.05841   0.99997   1.000
    C114    C    0.54113   0.90797   0.08301   1.000
    C115    C    0.04130   0.90806   0.08304   1.000
    C116    C    0.53990   0.58764   0.41352   1.000
    C117    C    0.03948   0.58784   0.41360   1.000
    C118    C    0.71047   0.91207   0.08664   1.000
    C119    C    0.21064   0.91203   0.08662   1.000
    C120    C    0.70893   0.59172   0.41707   1.000
    C121    C    0.20858   0.59178   0.41711   1.000
    C122    C    0.62491   0.44157   0.49994   1.000
    C123    C    0.12488   0.44170   0.50006   1.000
    C124    C    0.71087   0.58838   0.58649   1.000
    C125    C    0.21108   0.58836   0.58646   1.000
    C126    C    0.70849   0.90853   0.91697   1.000
    C127    C    0.20830   0.90851   0.91698   1.000
    C128    C    0.54148   0.59183   0.58313   1.000
    C129    C    0.04170   0.59166   0.58320   1.000
    C130    C    0.53939   0.91195   0.91370   1.000
    C131    C    0.03917   0.91187   0.91370   1.000
    C132    C    0.87491   0.94157   0.00000   1.000
    C133    C    0.37491   0.94164   0.00000   1.000
    C134    C    0.95882   0.09206   0.91698   1.000
    C135    C    0.45874   0.09198   0.91698   1.000
    C136    C    0.96009   0.41238   0.58648   1.000
    C137    C    0.46055   0.41219   0.58640   1.000
    C138    C    0.78948   0.08799   0.91338   1.000
    C139    C    0.28941   0.08796   0.91336   1.000
    C140    C    0.79106   0.40831   0.58292   1.000
    C141    C    0.29144   0.40826   0.58291   1.000
    C142    C    0.87509   0.55846   0.50007   1.000
    C143    C    0.37512   0.55834   0.49996   1.000
    C144    C    0.78916   0.41168   0.41350   1.000
    C145    C    0.28891   0.41167   0.41356   1.000
    C146    C    0.79158   0.09149   0.08305   1.000
    C147    C    0.29165   0.09155   0.08301   1.000
    C148    C    0.95854   0.40821   0.41689   1.000
    C149    C    0.45829   0.40838   0.41680   1.000
    C150    C    0.96068   0.08808   0.08631   1.000
    C151    C    0.46077   0.08819   0.08629   1.000
    O152    O    0.93745   0.97078   0.00001   1.000
    O153    O    0.87476   0.90782   0.99192   1.000
    O154    O    0.37477   0.90751   0.99318   1.000
    O155    O    0.43746   0.97082   0.99999   1.000
    O156    O    0.77079   0.04575   0.04153   1.000
    O157    O    0.73023   0.95604   0.04333   1.000
    O158    O    0.76974   0.04400   0.95670   1.000
    O159    O    0.72924   0.95427   0.95849   1.000
    O160    O    0.02065   0.95403   0.04153   1.000
    O161    O    0.98033   0.04404   0.04316   1.000
    O162    O    0.01958   0.95594   0.95686   1.000
    O163    O    0.97941   0.04603   0.95850   1.000
    O164    O    0.06254   0.02921   1.00000   1.000
    O165    O    0.12524   0.09241   0.00729   1.000
    O166    O    0.62524   0.09230   0.00776   1.000
    O167    O    0.33386   0.10393   0.09778   1.000
    O168    O    0.27082   0.04577   0.04150   1.000
    O169    O    0.58337   0.89594   0.09779   1.000
    O170    O    0.52057   0.95398   0.04150   1.000
    O171    O    0.08352   0.89600   0.09780   1.000
    O172    O    0.83379   0.10386   0.09782   1.000
    O173    O    0.41842   0.10225   0.09942   1.000
    O174    O    0.48039   0.04409   0.04314   1.000
    O175    O    0.91834   0.10215   0.09945   1.000
    O176    O    0.16819   0.89798   0.09960   1.000
    O177    O    0.23032   0.95601   0.04330   1.000
    O178    O    0.66803   0.89800   0.09960   1.000
    O179    O    0.37581   0.15074   0.14807   1.000
    O180    O    0.62541   0.84947   0.14816   1.000
    O181    O    0.12551   0.84949   0.14817   1.000
    O182    O    0.87578   0.15065   0.14811   1.000
    O183    O    0.01758   0.78617   0.19683   1.000
    O184    O    0.50064   0.78623   0.19708   1.000
    O185    O    0.42046   0.20438   0.19867   1.000
    O186    O    0.33034   0.19863   0.20200   1.000
    O187    O    0.92047   0.20433   0.19864   1.000
    O188    O    0.83037   0.19845   0.20214   1.000
    O189    O    0.58018   0.79538   0.19803   1.000
    O190    O    0.67019   0.80194   0.20282   1.000
    O191    O    0.08021   0.79537   0.19795   1.000
    O192    O    0.17020   0.80199   0.20291   1.000
    O193    O    0.00015   0.21278   0.19906   1.000
    O194    O    0.50015   0.21273   0.19925   1.000
    O195    O    0.25064   0.19650   0.20862   1.000
    O196    O    0.75069   0.19621   0.20892   1.000
    O197    O    0.74971   0.80456   0.21042   1.000
    O198    O    0.24970   0.80466   0.21067   1.000
    O199    O    0.03502   0.74341   0.24503   1.000
    O200    O    0.53508   0.74344   0.24520   1.000
    O201    O    0.96512   0.25586   0.24654   1.000
    O202    O    0.46505   0.25585   0.24667   1.000
    O203    O    0.28479   0.24436   0.25330   1.000
    O204    O    0.78489   0.24412   0.25353   1.000
    O205    O    0.71507   0.75658   0.25478   1.000
    O206    O    0.21496   0.75666   0.25496   1.000
    O207    O    0.01744   0.69523   0.28909   1.000
    O208    O    0.07978   0.69811   0.29716   1.000
    O209    O    0.50044   0.69529   0.28934   1.000
    O210    O    0.57997   0.69811   0.29724   1.000
    O211    O    0.99932   0.30360   0.29138   1.000
    O212    O    0.91966   0.30156   0.29786   1.000
    O213    O    0.49920   0.30353   0.29159   1.000
    O214    O    0.41951   0.30161   0.29790   1.000
    O215    O    0.24974   0.28745   0.30086   1.000
    O216    O    0.32937   0.29588   0.30121   1.000
    O217    O    0.74992   0.28714   0.30119   1.000
    O218    O    0.82953   0.29569   0.30135   1.000
    O219    O    0.66995   0.70469   0.30203   1.000
    O220    O    0.74957   0.71376   0.30274   1.000
    O221    O    0.16974   0.70474   0.30213   1.000
    O222    O    0.24935   0.71385   0.30300   1.000
    O223    O    0.37402   0.34952   0.35183   1.000
    O224    O    0.87422   0.34942   0.35187   1.000
    O225    O    0.62475   0.65061   0.35188   1.000
    O226    O    0.12447   0.65067   0.35192   1.000
    O227    O    0.58224   0.60190   0.40045   1.000
    O228    O    0.66675   0.60394   0.40223   1.000
    O229    O    0.08187   0.60204   0.40053   1.000
    O230    O    0.16642   0.60401   0.40228   1.000
    O231    O    0.33134   0.39781   0.40050   1.000
    O232    O    0.41603   0.39616   0.40213   1.000
    O233    O    0.83157   0.39777   0.40049   1.000
    O234    O    0.91626   0.39603   0.40218   1.000
    O235    O    0.76958   0.45585   0.45675   1.000
    O236    O    0.51997   0.54383   0.45673   1.000
    O237    O    0.26946   0.45584   0.45678   1.000
    O238    O    0.01972   0.54393   0.45683   1.000
    O239    O    0.47917   0.45420   0.45837   1.000
    O240    O    0.97925   0.45411   0.45848   1.000
    O241    O    0.72947   0.54587   0.45853   1.000
    O242    O    0.22929   0.54590   0.45856   1.000
    O243    O    0.87514   0.59218   0.49185   1.000
    O244    O    0.37517   0.59268   0.49396   1.000
    O245    O    0.68746   0.47079   0.49997   1.000
    O246    O    0.62487   0.40792   0.50835   1.000
    O247    O    0.52076   0.54593   0.54153   1.000
    O248    O    0.48030   0.45610   0.54317   1.000
    O249    O    0.31256   0.52918   0.49998   1.000
    O250    O    0.81255   0.52924   0.50003   1.000
    O251    O    0.77053   0.45416   0.54146   1.000
    O252    O    0.73043   0.54420   0.54324   1.000
    O253    O    0.18744   0.47086   0.50003   1.000
    O254    O    0.27072   0.45414   0.54146   1.000
    O255    O    0.23054   0.54419   0.54323   1.000
    O256    O    0.12483   0.40734   0.50601   1.000
    O257    O    0.02084   0.54584   0.54163   1.000
    O258    O    0.98003   0.45620   0.54327   1.000
    O259    O    0.33361   0.39603   0.59774   1.000
    O260    O    0.83323   0.39609   0.59777   1.000
    O261    O    0.58376   0.60401   0.59782   1.000
    O262    O    0.08396   0.60387   0.59788   1.000
    O263    O    0.41816   0.39799   0.59948   1.000
    O264    O    0.16865   0.60222   0.59951   1.000
    O265    O    0.91775   0.39813   0.59955   1.000
    O266    O    0.66845   0.60229   0.59951   1.000
    O267    O    0.62581   0.65062   0.64813   1.000
    O268    O    0.12596   0.65051   0.64817   1.000
    O269    O    0.37556   0.34936   0.64809   1.000
    O270    O    0.87523   0.34941   0.64812   1.000
    O271    O    0.25068   0.28620   0.69703   1.000
    O272    O    0.75042   0.28623   0.69723   1.000
    O273    O    0.33029   0.29529   0.69789   1.000
    O274    O    0.42025   0.30191   0.70284   1.000
    O275    O    0.83003   0.29532   0.69796   1.000
    O276    O    0.92001   0.30193   0.70278   1.000
    O277    O    0.67050   0.70433   0.69866   1.000
    O278    O    0.58037   0.69848   0.70215   1.000
    O279    O    0.17061   0.70417   0.69880   1.000
    O280    O    0.08047   0.69842   0.70211   1.000
    O281    O    0.75012   0.71287   0.69882   1.000
    O282    O    0.25024   0.71261   0.69914   1.000
    O283    O    0.01761   0.69649   0.70842   1.000
    O284    O    0.50071   0.69645   0.70863   1.000
    O285    O    0.99953   0.30477   0.71069   1.000
    O286    O    0.49976   0.30478   0.71090   1.000
    O287    O    0.28507   0.24338   0.74506   1.000
    O288    O    0.78491   0.24342   0.74519   1.000
    O289    O    0.71515   0.75590   0.74648   1.000
    O290    O    0.21518   0.75569   0.74671   1.000
    O291    O    0.03492   0.74418   0.75334   1.000
    O292    O    0.53492   0.74419   0.75347   1.000
    O293    O    0.96489   0.25661   0.75482   1.000
    O294    O    0.46502   0.25660   0.75497   1.000
    O295    O    0.25034   0.19538   0.78936   1.000
    O296    O    0.32984   0.19804   0.79711   1.000
    O297    O    0.75026   0.19543   0.78954   1.000
    O298    O    0.82978   0.19808   0.79717   1.000
    O299    O    0.74936   0.80380   0.79109   1.000
    O300    O    0.66968   0.80157   0.79788   1.000
    O301    O    0.24932   0.80356   0.79139   1.000
    O302    O    0.16962   0.80142   0.79801   1.000
    O303    O    0.01730   0.78729   0.80075   1.000
    O304    O    0.07950   0.79566   0.80133   1.000
    O305    O    0.49990   0.78727   0.80096   1.000
    O306    O    0.57958   0.79571   0.80138   1.000
    O307    O    0.91978   0.20466   0.80198   1.000
    O308    O    0.99932   0.21383   0.80296   1.000
    O309    O    0.41983   0.20464   0.80205   1.000
    O310    O    0.49937   0.21383   0.80315   1.000
    O311    O    0.87455   0.15056   0.85184   1.000
    O312    O    0.37453   0.15052   0.85184   1.000
    O313    O    0.62427   0.84938   0.85190   1.000
    O314    O    0.12414   0.84931   0.85193   1.000
    O315    O    0.58172   0.89787   0.90056   1.000
    O316    O    0.66627   0.89617   0.90220   1.000
    O317    O    0.33186   0.10202   0.90040   1.000
    O318    O    0.41652   0.10402   0.90221   1.000
    O319    O    0.83192   0.10206   0.90041   1.000
    O320    O    0.91659   0.10409   0.90221   1.000
    O321    O    0.08153   0.89781   0.90058   1.000
    O322    O    0.16609   0.89613   0.90222   1.000
    O323    O    0.26970   0.04398   0.95667   1.000
    O324    O    0.51970   0.95597   0.95684   1.000
    O325    O    0.47937   0.04599   0.95848   1.000
    O326    O    0.22914   0.95425   0.95848   1.000
    O327    O    0.56255   0.02923   0.99997   1.000
    O328    O    0.68755   0.02923   0.99998   1.000
    O329    O    0.18754   0.02920   0.99998   1.000
    O330    O    0.56248   0.47079   0.49994   1.000
    O331    O    0.06242   0.47085   0.50006   1.000
    O332    O    0.81245   0.97079   0.00001   1.000
    O333    O    0.31245   0.97082   0.99999   1.000
    O334    O    0.93753   0.52924   0.50007   1.000
    O335    O    0.43758   0.52918   0.49995   1.000
loop_
    _geom_bond_atom_site_label_1
    _geom_bond_atom_site_label_2
    _geom_bond_distance
    _geom_bond_site_symmetry_2
    _ccdc_geom_bond_type
    C132   O152      0.93067      .   S
    C0     O152      0.93067  1_545   S
    C132   O153      0.48480  1_554   S
    C28    O153      0.48480      .   S
    C133   O154      0.48486  1_554   S
    C29    O154      0.48486      .   S
    C133   O155      0.93052  1_554   S
    C1     O155      0.93052  1_545   S
    C4     O156      0.96400      .   S
    C146   O156      0.96400      .   S
    C4     O157      0.96546  1_545   S
    C118   O157      0.96546      .   S
    C4     O158      0.96560  1_554   S
    C138   O158      0.96560      .   S
    C4     O159      0.96383  1_544   S
    C126   O159      0.96383      .   S
    C0     O160      0.96619  1_645   S
    C115   O160      0.96619      .   S
    C0     O161      0.96432      .   S
    C150   O161      0.96432      .   S
    C0     O162      0.96438  1_644   S
    C131   O162      0.96438      .   S
    C0     O163      0.96649  1_554   S
    C134   O163      0.96649      .   S
    C0     O164      0.93072  1_654   S
    C113   O164      0.93072      .   S
    C9     O165      0.48491      .   S
    C113   O165      0.48491  1_556   S
    C8     O166      0.48495      .   S
    C112   O166      0.48495  1_556   S
    C147   O167      0.63767      .   S
    C97    O167      0.63767      .   S
    C147   O168      0.96438      .   S
    C5     O168      0.96438  1_566   S
    C114   O169      0.63727      .   S
    C54    O169      0.63727      .   S
    C114   O170      0.96630      .   S
    C1     O170      0.96630  1_546   S
    C115   O171      0.63714      .   S
    C55    O171      0.63714      .   S
    C146   O172      0.63770      .   S
    C96    O172      0.63770      .   S
    C151   O173      0.63762      .   S
    C97    O173      0.63762      .   S
    C151   O174      0.96474      .   S
    C1     O174      0.96474  1_556   S
    C150   O175      0.63753      .   S
    C96    O175      0.63753      .   S
    C119   O176      0.63726      .   S
    C55    O176      0.63726      .   S
    C119   O177      0.96533      .   S
    C5     O177      0.96533  1_556   S
    C118   O178      0.63710      .   S
    C54    O178      0.63710      .   S
    C97    O179      0.74696      .   S
    C99    O179      0.74696      .   S
    C54    O180      0.74801      .   S
    C56    O180      0.74801      .   S
    C55    O181      0.74799      .   S
    C57    O181      0.74799      .   S
    C96    O182      0.74688      .   S
    C98    O182      0.74688      .   S
    C17    O183      0.37147      .   S
    C63    O183      0.37147      .   S
    C16    O184      0.54434      .   S
    C62    O184      0.54434      .   S
    C99    O185      0.70159      .   S
    C101   O185      0.70159      .   S
    C99    O186      0.70166      .   S
    C109   O186      0.70166      .   S
    C98    O187      0.70160      .   S
    C100   O187      0.70160      .   S
    C98    O188      0.70166      .   S
    C108   O188      0.70166      .   S
    C56    O189      0.70145      .   S
    C62    O189      0.70145      .   S
    C56    O190      0.70146      .   S
    C58    O190      0.70146      .   S
    C57    O191      0.70146      .   S
    C63    O191      0.70146      .   S
    C57    O192      0.70146      .   S
    C59    O192      0.70146      .   S
    C40    O193      0.54420      .   S
    C100   O193      0.54420  1_655   S
    C41    O194      0.54420      .   S
    C101   O194      0.54420      .   S
    C45    O195      0.54427      .   S
    C109   O195      0.54427      .   S
    C44    O196      0.54427      .   S
    C108   O196      0.54427      .   S
    C12    O197      0.54434      .   S
    C58    O197      0.54434      .   S
    C13    O198      0.54435      .   S
    C59    O198      0.54435      .   S
    C63    O199      0.69529      .   S
    C61    O199      0.69529      .   S
    C62    O200      0.69530      .   S
    C60    O200      0.69530      .   S
    C100   O201      0.69522      .   S
    C106   O201      0.69522      .   S
    C101   O202      0.69524      .   S
    C107   O202      0.69524      .   S
    C109   O203      0.69526      .   S
    C111   O203      0.69526      .   S
    C108   O204      0.69526      .   S
    C110   O204      0.69526      .   S
    C58    O205      0.69521      .   S
    C52    O205      0.69521      .   S
    C59    O206      0.69524      .   S
    C53    O206      0.69524      .   S
    C61    O207      0.36822      .   S
    C15    O207      0.36822      .   S
    C61    O208      0.70168      .   S
    C51    O208      0.70168      .   S
    C60    O209      0.54430      .   S
    C14    O209      0.54430      .   S
    C60    O210      0.70170      .   S
    C50    O210      0.70170      .   S
    C106   O211      0.54434      .   S
    C42    O211      0.54434  1_455   S
    C106   O212      0.70143      .   S
    C104   O212      0.70143      .   S
    C107   O213      0.54435      .   S
    C43    O213      0.54435      .   S
    C107   O214      0.70144      .   S
    C105   O214      0.70144      .   S
    C111   O215      0.54431      .   S
    C47    O215      0.54431      .   S
    C111   O216      0.70141      .   S
    C105   O216      0.70141      .   S
    C110   O217      0.54433      .   S
    C46    O217      0.54433      .   S
    C110   O218      0.70141      .   S
    C104   O218      0.70141      .   S
    C52    O219      0.70162      .   S
    C50    O219      0.70162      .   S
    C52    O220      0.54420      .   S
    C10    O220      0.54420      .   S
    C53    O221      0.70165      .   S
    C51    O221      0.70165      .   S
    C53    O222      0.54422      .   S
    C11    O222      0.54422      .   S
    C105   O223      0.74795      .   S
    C103   O223      0.74795      .   S
    C104   O224      0.74798      .   S
    C102   O224      0.74798      .   S
    C50    O225      0.74689      .   S
    C48    O225      0.74689      .   S
    C51    O226      0.74700      .   S
    C49    O226      0.74700      .   S
    C48    O227      0.63739      .   S
    C116   O227      0.63739      .   S
    C48    O228      0.63769      .   S
    C120   O228      0.63769      .   S
    C49    O229      0.63772      .   S
    C117   O229      0.63772      .   S
    C49    O230      0.63751      .   S
    C121   O230      0.63751      .   S
    C103   O231      0.63731      .   S
    C145   O231      0.63731      .   S
    C103   O232      0.63713      .   S
    C149   O232      0.63713      .   S
    C102   O233      0.63704      .   S
    C144   O233      0.63704      .   S
    C102   O234      0.63740      .   S
    C148   O234      0.63740      .   S
    C144   O235      0.96637      .   S
    C2     O235      0.96637      .   S
    C116   O236      0.96340      .   S
    C7     O236      0.96340      .   S
    C145   O237      0.96564      .   S
    C3     O237      0.96564      .   S
    C117   O238      0.96400      .   S
    C6     O238      0.96400  1_655   S
    C149   O239      0.96558      .   S
    C7     O239      0.96558      .   S
    C148   O240      0.96594      .   S
    C6     O240      0.96594      .   S
    C120   O241      0.96402      .   S
    C2     O241      0.96402      .   S
    C121   O242      0.96487      .   S
    C3     O242      0.96487      .   S
    C38    O243      0.48497      .   S
    C142   O243      0.48497      .   S
    C39    O244      0.48485      .   S
    C143   O244      0.48485      .   S
    C122   O245      0.93077      .   S
    C2     O245      0.93077      .   S
    C122   O246      0.48498      .   S
    C18    O246      0.48498      .   S
    C7     O247      0.96602      .   S
    C128   O247      0.96602      .   S
    C7     O248      0.96400      .   S
    C137   O248      0.96400      .   S
    C143   O249      0.93056      .   S
    C3     O249      0.93056      .   S
    C2     O250      0.93075      .   S
    C142   O250      0.93075      .   S
    C2     O251      0.96408      .   S
    C140   O251      0.96408      .   S
    C2     O252      0.96641      .   S
    C124   O252      0.96641      .   S
    C3     O253      0.93056      .   S
    C123   O253      0.93056      .   S
    C3     O254      0.96489      .   S
    C141   O254      0.96489      .   S
    C3     O255      0.96568      .   S
    C125   O255      0.96568      .   S
    C123   O256      0.48486      .   S
    C19    O256      0.48486      .   S
    C6     O257      0.96555  1_655   S
    C129   O257      0.96555      .   S
    C6     O258      0.96348      .   S
    C136   O258      0.96348      .   S
    C141   O259      0.63751      .   S
    C81    O259      0.63751      .   S
    C140   O260      0.63770      .   S
    C80    O260      0.63770      .   S
    C128   O261      0.63739      .   S
    C70    O261      0.63739      .   S
    C129   O262      0.63715      .   S
    C71    O262      0.63715      .   S
    C137   O263      0.63774      .   S
    C81    O263      0.63774      .   S
    C125   O264      0.63730      .   S
    C71    O264      0.63730      .   S
    C136   O265      0.63738      .   S
    C80    O265      0.63738      .   S
    C124   O266      0.63707      .   S
    C70    O266      0.63707      .   S
    C70    O267      0.74798      .   S
    C72    O267      0.74798      .   S
    C71    O268      0.74795      .   S
    C73    O268      0.74795      .   S
    C81    O269      0.74700      .   S
    C83    O269      0.74700      .   S
    C80    O270      0.74691      .   S
    C82    O270      0.74691      .   S
    C31    O271      0.54423      .   S
    C85    O271      0.54423      .   S
    C30    O272      0.54420      .   S
    C84    O272      0.54420      .   S
    C83    O273      0.70164      .   S
    C85    O273      0.70164      .   S
    C83    O274      0.70168      .   S
    C93    O274      0.70168      .   S
    C82    O275      0.70162      .   S
    C84    O275      0.70162      .   S
    C82    O276      0.70170      .   S
    C92    O276      0.70170      .   S
    C72    O277      0.70142      .   S
    C78    O277      0.70142      .   S
    C72    O278      0.70142      .   S
    C74    O278      0.70142      .   S
    C73    O279      0.70141      .   S
    C79    O279      0.70141      .   S
    C73    O280      0.70144      .   S
    C75    O280      0.70144      .   S
    C26    O281      0.54433      .   S
    C78    O281      0.54433      .   S
    C27    O282      0.54432      .   S
    C79    O282      0.54432      .   S
    C23    O283      0.37265      .   S
    C75    O283      0.37265      .   S
    C22    O284      0.54434      .   S
    C74    O284      0.54434      .   S
    C34    O285      0.54430  1_455   S
    C92    O285      0.54430      .   S
    C35    O286      0.54428      .   S
    C93    O286      0.54428      .   S
    C85    O287      0.69524      .   S
    C91    O287      0.69524      .   S
    C84    O288      0.69521      .   S
    C90    O288      0.69521      .   S
    C78    O289      0.69525      .   S
    C76    O289      0.69525      .   S
    C79    O290      0.69526      .   S
    C77    O290      0.69526      .   S
    C75    O291      0.69523      .   S
    C69    O291      0.69523      .   S
    C74    O292      0.69523      .   S
    C68    O292      0.69523      .   S
    C92    O293      0.69530      .   S
    C94    O293      0.69530      .   S
    C93    O294      0.69529      .   S
    C95    O294      0.69529      .   S
    C91    O295      0.54435      .   S
    C33    O295      0.54435      .   S
    C91    O296      0.70146      .   S
    C89    O296      0.70146      .   S
    C90    O297      0.54434      .   S
    C32    O297      0.54434      .   S
    C90    O298      0.70146      .   S
    C88    O298      0.70146      .   S
    C76    O299      0.54427      .   S
    C24    O299      0.54427      .   S
    C76    O300      0.70165      .   S
    C66    O300      0.70165      .   S
    C77    O301      0.54428      .   S
    C25    O301      0.54428      .   S
    C77    O302      0.70167      .   S
    C67    O302      0.70167      .   S
    C69    O303      0.36311      .   S
    C21    O303      0.36311      .   S
    C69    O304      0.70160      .   S
    C67    O304      0.70160      .   S
    C68    O305      0.54421      .   S
    C20    O305      0.54421      .   S
    C68    O306      0.70160      .   S
    C66    O306      0.70160      .   S
    C94    O307      0.70145      .   S
    C88    O307      0.70145      .   S
    C94    O308      0.54435      .   S
    C36    O308      0.54435  1_455   S
    C95    O309      0.70146      .   S
    C89    O309      0.70146      .   S
    C95    O310      0.54434      .   S
    C37    O310      0.54434      .   S
    C88    O311      0.74802      .   S
    C86    O311      0.74802      .   S
    C89    O312      0.74798      .   S
    C87    O312      0.74798      .   S
    C66    O313      0.74689      .   S
    C64    O313      0.74689      .   S
    C67    O314      0.74695      .   S
    C65    O314      0.74695      .   S
    C64    O315      0.63748      .   S
    C130   O315      0.63748      .   S
    C64    O316      0.63773      .   S
    C126   O316      0.63773      .   S
    C87    O317      0.63720      .   S
    C139   O317      0.63720      .   S
    C87    O318      0.63717      .   S
    C135   O318      0.63717      .   S
    C86    O319      0.63715      .   S
    C138   O319      0.63715      .   S
    C86    O320      0.63722      .   S
    C134   O320      0.63722      .   S
    C65    O321      0.63766      .   S
    C131   O321      0.63766      .   S
    C65    O322      0.63762      .   S
    C127   O322      0.63762      .   S
    C139   O323      0.96533      .   S
    C5     O323      0.96533  1_565   S
    C130   O324      0.96423      .   S
    C1     O324      0.96423  1_545   S
    C135   O325      0.96609      .   S
    C1     O325      0.96609      .   S
    C127   O326      0.96402      .   S
    C5     O326      0.96402      .   S
    C112   O327      0.93078      .   S
    C1     O327      0.93078      .   S
    C112   O328      0.93097      .   S
    C4     O328      0.93097  1_554   S
    C113   O329      0.93089      .   S
    C5     O329      0.93089  1_565   S
    C122   O330      0.93080      .   S
    C7     O330      0.93080      .   S
    C123   O331      0.93066      .   S
    C6     O331      0.93066  1_655   S
    C132   O332      0.93098      .   S
    C4     O332      0.93098  1_545   S
    C133   O333      0.93079  1_554   S
    C5     O333      0.93079      .   S
    C142   O334      0.93078      .   S
    C6     O334      0.93078      .   S
    C143   O335      0.93070      .   S
    C7     O335      0.93070      .   S
