# CIF file generated by openbabel 2.4.90, see http://openbabel.sf.net
data_I
_chemical_name_common ''
_cell_length_a 12.91
_cell_length_b 18.1
_cell_length_c 26.523
_cell_angle_alpha 90.001
_cell_angle_beta 89.994
_cell_angle_gamma 90.063
_space_group_name_H-M_alt 'P 1'
_space_group_name_Hall 'P 1'
loop_
    _symmetry_equiv_pos_as_xyz
    x,y,z
loop_
    _atom_site_label
    _atom_site_type_symbol
    _atom_site_fract_x
    _atom_site_fract_y
    _atom_site_fract_z
    _atom_site_occupancy
    N0      N    0.25003   0.50000   0.99996   1.000
    N1      N    0.62468   0.26322   0.24999   1.000
    N2      N    0.37527   0.23677   0.24999   1.000
    N3      N    0.62476   0.80561   0.24546   1.000
    N4      N    0.37520   0.73684   0.25000   1.000
    N5      N    0.87464   0.73685   0.24997   1.000
    N6      N    0.87461   0.23686   0.24998   1.000
    N7      N    0.12533   0.76314   0.24997   1.000
    N8      N    0.25005   0.00000   0.99997   1.000
    N9      N    0.74999   0.99997   0.00001   1.000
    N10     N    0.74995   0.49997   0.00000   1.000
    N11     N    0.00000   0.00000   0.50000   1.000
    N12     N    1.00000   0.49999   0.50000   1.000
    N13     N    0.49996   0.49998   0.49990   1.000
    N14     N    0.50025   0.00005   0.49987   1.000
    N15     N    0.62480   0.74918   0.75002   1.000
    N16     N    0.12536   0.26313   0.24998   1.000
    N17     N    0.62472   0.60743   0.25001   1.000
    N18     N    0.12538   0.76313   0.75002   1.000
    N19     N    0.62486   0.26318   0.75002   1.000
    N20     N    0.12539   0.26314   0.75002   1.000
    N21     N    0.37539   0.23680   0.75000   1.000
    N22     N    0.37539   0.73680   0.75000   1.000
    N23     N    0.87467   0.23685   0.75004   1.000
    N24     N    0.87466   0.73685   0.75004   1.000
    Zr25    Zr   0.75065   0.00012   0.21426   1.000
    O26     O    0.75041   0.00007   0.15074   1.000
    O27     O    0.79726   0.06617   0.22765   1.000
    O28     O    0.70354   0.94460   0.22653   1.000
    O29     O    0.79182   0.92219   0.22298   1.000
    O30     O    0.70874   0.07796   0.22300   1.000
    Zr31    Zr   0.24933   0.49987   0.21423   1.000
    O32     O    0.20271   0.43382   0.22763   1.000
    O33     O    0.24957   0.49991   0.15070   1.000
    O34     O    0.29642   0.56600   0.22764   1.000
    O35     O    0.29122   0.42203   0.22299   1.000
    O36     O    0.20816   0.57780   0.22296   1.000
    Zr37    Zr   0.50103   0.99995   0.28569   1.000
    O38     O    0.50075   0.99998   0.34920   1.000
    O39     O    0.54213   0.07787   0.27696   1.000
    O40     O    0.45386   0.06602   0.27230   1.000
    O41     O    0.45917   0.92210   0.27696   1.000
    O42     O    0.54753   0.94450   0.27117   1.000
    Zr43    Zr   0.56335   0.97247   0.70715   1.000
    O44     O    0.53194   0.98624   0.64715   1.000
    O45     O    0.57336   0.06412   0.71946   1.000
    O46     O    0.48507   0.05229   0.72411   1.000
    O47     O    0.49040   0.90834   0.71946   1.000
    Zr48    Zr   0.24961   0.99992   0.21431   1.000
    O49     O    0.29138   0.92208   0.22304   1.000
    O50     O    0.29672   0.06600   0.22769   1.000
    O51     O    0.20289   0.93385   0.22768   1.000
    O52     O    0.20838   0.07783   0.22302   1.000
    O53     O    0.24976   0.99994   0.15075   1.000
    Zr54    Zr   0.00001   0.99999   0.28578   1.000
    O55     O    0.04181   0.07785   0.27701   1.000
    O56     O    0.00001   1.00000   0.34929   1.000
    O57     O    0.95821   0.92213   0.27702   1.000
    O58     O    0.95311   0.06609   0.27235   1.000
    O59     O    0.04689   0.93390   0.27235   1.000
    Zr60    Zr   0.49882   0.50004   0.28569   1.000
    O61     O    0.54070   0.53896   0.27696   1.000
    O62     O    0.45775   0.42212   0.27696   1.000
    O63     O    0.54602   0.43397   0.27230   1.000
    O64     O    0.49918   0.50002   0.34921   1.000
    O65     O    0.45236   0.56611   0.27231   1.000
    Zr66    Zr   0.99997   0.50000   0.28578   1.000
    O67     O    0.95309   0.56609   0.27235   1.000
    O68     O    0.04178   0.57786   0.27701   1.000
    O69     O    0.95817   0.42214   0.27702   1.000
    O70     O    0.99998   0.50000   0.34929   1.000
    O71     O    0.04687   0.43390   0.27235   1.000
    Zr72    Zr   0.00003   0.99999   0.71420   1.000
    O73     O    0.04691   0.93389   0.72764   1.000
    O74     O    0.95822   0.92213   0.72297   1.000
    O75     O    0.04183   0.07785   0.72297   1.000
    O76     O    0.95314   0.06608   0.72764   1.000
    O77     O    0.00002   0.99999   0.65070   1.000
    Zr78    Zr   0.75067   0.50011   0.78578   1.000
    O79     O    0.70879   0.57445   0.77702   1.000
    O80     O    0.70359   0.43399   0.77237   1.000
    O81     O    0.75042   0.50007   0.84930   1.000
    O82     O    0.79184   0.42219   0.77704   1.000
    O83     O    0.79729   0.56616   0.77238   1.000
    Zr84    Zr   0.00002   0.49998   0.71420   1.000
    O85     O    0.00001   0.49999   0.65070   1.000
    O86     O    0.95313   0.56608   0.72764   1.000
    O87     O    0.04182   0.57784   0.72297   1.000
    O88     O    0.95822   0.42213   0.72297   1.000
    O89     O    0.04691   0.43389   0.72764   1.000
    Zr90    Zr   0.50109   0.49993   0.71431   1.000
    O91     O    0.45394   0.56602   0.72769   1.000
    O92     O    0.54760   0.43388   0.72770   1.000
    O93     O    0.54222   0.57435   0.72304   1.000
    O94     O    0.45927   0.42207   0.72304   1.000
    O95     O    0.50074   0.49995   0.65073   1.000
    Zr96    Zr   0.75034   0.50007   0.21433   1.000
    O97     O    0.75020   0.50004   0.15078   1.000
    O98     O    0.79158   0.42217   0.22304   1.000
    O99     O    0.70857   0.53899   0.22306   1.000
    O100    O    0.79708   0.56614   0.22769   1.000
    O101    O    0.70322   0.43399   0.22770   1.000
    Zr102   Zr   0.24965   0.99991   0.78568   1.000
    O103    O    0.20292   0.93385   0.77231   1.000
    O104    O    0.20841   0.07782   0.77697   1.000
    O105    O    0.29679   0.06601   0.77230   1.000
    O106    O    0.24979   0.99994   0.84922   1.000
    O107    O    0.29145   0.92206   0.77695   1.000
    Zr108   Zr   0.24965   0.49990   0.78567   1.000
    O109    O    0.29679   0.56600   0.77229   1.000
    O110    O    0.20293   0.43385   0.77230   1.000
    O111    O    0.20841   0.57782   0.77696   1.000
    O112    O    0.24979   0.49993   0.84921   1.000
    O113    O    0.29146   0.42205   0.77694   1.000
    Zr114   Zr   0.75067   0.00011   0.78577   1.000
    O115    O    0.79729   0.06616   0.77237   1.000
    O116    O    0.70881   0.07795   0.77702   1.000
    O117    O    0.79184   0.92219   0.77704   1.000
    O118    O    0.75043   0.00007   0.84929   1.000
loop_
    _geom_bond_atom_site_label_1
    _geom_bond_atom_site_label_2
    _geom_bond_distance
    _geom_bond_site_symmetry_2
    _ccdc_geom_bond_type
    Zr25   O26       1.68480      .   S
    N9     O26       3.99771  1_565   S
    Zr25   O27       1.38418      .   S
    N6     O27       3.29937      .   S
    Zr25   O28       1.21824  1_545   S
    N3     O28       2.75859      .   S
    Zr25   O29       1.52552  1_545   S
    N5     O29       3.59422      .   S
    Zr25   O30       1.52748      .   S
    N1     O30       3.59747      .   S
    Zr31   O32       1.38422      .   S
    N16    O32       3.29941      .   S
    Zr31   O33       1.68509      .   S
    N0     O33       3.99793  1_556   S
    Zr31   O34       1.38836      .   S
    N4     O34       3.30768      .   S
    Zr31   O35       1.52754      .   S
    N2     O35       3.59748      .   S
    Zr31   O36       1.52550      .   S
    N7     O36       3.59413      .   S
    Zr37   O38       1.68454      .   S
    N14    O38       3.99615  1_545   S
    Zr37   O39       1.52406  1_565   S
    N1     O39       3.59084      .   S
    Zr37   O40       1.38879  1_565   S
    N2     O40       3.30732      .   S
    Zr37   O41       1.52630      .   S
    N4     O41       3.59470      .   S
    Zr37   O42       1.23182      .   S
    N3     O42       2.78993      .   S
    Zr43   O44       1.66139      .   S
    N14    O44       3.93561  1_545   S
    Zr43   O45       1.69540  1_565   S
    N19    O45       3.75167      .   S
    Zr43   O46       1.82045  1_565   S
    N21    O46       3.69319      .   S
    Zr43   O47       1.52924      .   S
    N22    O47       3.53420      .   S
    Zr48   O49       1.52685      .   S
    N4     O49       3.59598      .   S
    Zr48   O50       1.38749  1_565   S
    N2     O50       3.30532      .   S
    Zr48   O51       1.38488      .   S
    N7     O51       3.30043      .   S
    Zr48   O52       1.52542  1_565   S
    N16    O52       3.59406      .   S
    Zr48   O53       1.68581      .   S
    N8     O53       3.99902  1_546   S
    Zr54   O55       1.52626  1_565   S
    N16    O55       3.59402      .   S
    Zr54   O56       1.68446      .   S
    N11    O56       3.99724  1_545   S
    Zr54   O57       1.52630  1_455   S
    N5     O57       3.59410      .   S
    Zr54   O58       1.38793  1_465   S
    N6     O58       3.30757      .   S
    Zr54   O59       1.38769      .   S
    N7     O59       3.30720      .   S
    Zr60   O61       0.91727      .   S
    N17    O61       1.79446      .   S
    Zr60   O62       1.52394      .   S
    N2     O62       3.59059      .   S
    Zr60   O63       1.38888      .   S
    N1     O63       3.30754      .   S
    Zr60   O64       1.68473      .   S
    N13    O64       3.99671      .   S
    Zr60   O65       1.38475      .   S
    N4     O65       3.30130      .   S
    Zr66   O67       1.38769      .   S
    N5     O67       3.30717      .   S
    Zr66   O68       1.52621  1_655   S
    N7     O68       3.59396      .   S
    Zr66   O69       1.52629      .   S
    N6     O69       3.59407      .   S
    Zr66   O70       1.68448      .   S
    N12    O70       3.99728      .   S
    Zr66   O71       1.38789  1_655   S
    N16    O71       3.30751      .   S
    Zr72   O73       1.38780      .   S
    N18    O73       3.30739      .   S
    Zr72   O74       1.52630  1_455   S
    N24    O74       3.59410      .   S
    Zr72   O75       1.52634  1_565   S
    N20    O75       3.59418      .   S
    Zr72   O76       1.38793  1_465   S
    N23    O76       3.30751      .   S
    Zr72   O77       1.68426      .   S
    N11    O77       3.99702  1_545   S
    Zr78   O79       1.46908      .   S
    N15    O79       3.42050      .   S
    Zr78   O80       1.38806      .   S
    N19    O80       3.30700      .   S
    Zr78   O81       1.68467      .   S
    N10    O81       3.99719  1_554   S
    Zr78   O82       1.52547      .   S
    N23    O82       3.59405      .   S
    Zr78   O83       1.38428      .   S
    N24    O83       3.29954      .   S
    Zr84   O85       1.68424      .   S
    N12    O85       3.99698  1_655   S
    Zr84   O86       1.38792  1_455   S
    N24    O86       3.30749      .   S
    Zr84   O87       1.52634      .   S
    N18    O87       3.59418      .   S
    Zr84   O88       1.52623  1_455   S
    N23    O88       3.59399      .   S
    Zr84   O89       1.38778      .   S
    N20    O89       3.30734      .   S
    Zr90   O91       1.38881      .   S
    N22    O91       3.30754      .   S
    Zr90   O92       1.38483      .   S
    N19    O92       3.30130      .   S
    Zr90   O93       1.46565      .   S
    N15    O93       3.41401      .   S
    Zr90   O94       1.52626      .   S
    N21    O94       3.59463      .   S
    Zr90   O95       1.68633      .   S
    N13    O95       4.00057      .   S
    Zr96   O97       1.68545      .   S
    N10    O97       3.99914      .   S
    Zr96   O98       1.52545      .   S
    N6     O98       3.59411      .   S
    Zr96   O99       0.91724      .   S
    N17    O99       1.79446      .   S
    Zr96   O100      1.38485      .   S
    N5     O100      3.30036      .   S
    Zr96   O101      1.38747      .   S
    N1     O101      3.30520      .   S
    Zr102  O103      1.38487      .   S
    N18    O103      3.30034      .   S
    Zr102  O104      1.52552  1_565   S
    N20    O104      3.59426      .   S
    Zr102  O105      1.38781  1_565   S
    N21    O105      3.30594      .   S
    Zr102  O106      1.68527      .   S
    N8     O106      3.99847  1_545   S
    Zr102  O107      1.52715      .   S
    N22    O107      3.59676      .   S
    Zr108  O109      1.38778      .   S
    N22    O109      3.30590      .   S
    Zr108  O110      1.38480      .   S
    N20    O110      3.30023      .   S
    Zr108  O111      1.52551      .   S
    N18    O111      3.59424      .   S
    Zr108  O112      1.68526      .   S
    N0     O112      3.99843      .   S
    Zr108  O113      1.52710      .   S
    N21    O113      3.59665      .   S
    Zr114  O115      1.38426      .   S
    N23    O115      3.29952      .   S
    Zr114  O116      1.52719      .   S
    N19    O116      3.59663      .   S
    Zr114  O117      1.52550  1_545   S
    N24    O117      3.59409      .   S
    Zr114  O118      1.68476      .   S
    N9     O118      3.99759  1_564   S
