# CIF file generated by openbabel 2.4.90, see http://openbabel.sf.net
data_I
_chemical_name_common ''
_cell_length_a 14.637
_cell_length_b 15.146
_cell_length_c 16.082
_cell_angle_alpha 93.928
_cell_angle_beta 90.101
_cell_angle_gamma 89.975
_space_group_name_H-M_alt 'P 1'
_space_group_name_Hall 'P 1'
loop_
    _symmetry_equiv_pos_as_xyz
    x,y,z
loop_
    _atom_site_label
    _atom_site_type_symbol
    _atom_site_fract_x
    _atom_site_fract_y
    _atom_site_fract_z
    _atom_site_occupancy
    Zr0     Zr   0.38223   0.15543   0.03555   1.000
    Zr1     Zr   0.15592   0.62159   0.30208   1.000
    Zr2     Zr   0.12897   0.64142   0.04496   1.000
    Zr3     Zr   0.65278   0.87366   0.69137   1.000
    Zr4     Zr   0.88269   0.84015   0.45931   1.000
    Zr5     Zr   0.64896   0.37453   0.19814   1.000
    Zr6     Zr   0.62488   0.35170   0.45187   1.000
    Zr7     Zr   0.14840   0.12566   0.80512   1.000
    Zr8     Zr   0.62159   0.84405   0.96141   1.000
    Zr9     Zr   0.84803   0.37478   0.70119   1.000
    Zr10    Zr   0.87476   0.35536   0.95743   1.000
    Zr11    Zr   0.34755   0.12291   0.30543   1.000
    Zr12    Zr   0.11797   0.15619   0.54101   1.000
    Zr13    Zr   0.35162   0.62216   0.79881   1.000
    Zr14    Zr   0.37550   0.64492   0.54490   1.000
    Zr15    Zr   0.85505   0.87034   0.19719   1.000
    N16     N    0.40776   0.87864   0.05688   1.000
    O17     O    0.39499   0.00412   0.07545   1.000
    O18     O    0.38761   0.97241   0.16777   1.000
    O19     O    0.29756   0.77535   0.05617   1.000
    O20     O    0.38466   0.76812   0.95302   1.000
    N21     N    0.57652   0.63153   0.42846   1.000
    O22     O    0.70731   0.71183   0.44619   1.000
    O23     O    0.59680   0.50551   0.41133   1.000
    O24     O    0.60662   0.73520   0.53544   1.000
    N25     N    0.50086   0.74879   0.23484   1.000
    O26     O    0.64548   0.79946   0.21881   1.000
    O27     O    0.35929   0.69608   0.26052   1.000
    N28     N    0.99591   0.24889   0.26261   1.000
    O29     O    0.13969   0.19672   0.28019   1.000
    O30     O    0.85373   0.30123   0.23804   1.000
    N31     N    0.59521   0.11933   0.93980   1.000
    O32     O    0.61801   0.22926   0.04369   1.000
    O33     O    0.70572   0.22247   0.94264   1.000
    O34     O    0.60838   0.99437   0.92127   1.000
    O35     O    0.61407   0.02509   0.82874   1.000
    N36     N    0.50094   0.24960   0.76350   1.000
    O37     O    0.64325   0.30166   0.73962   1.000
    O38     O    0.35680   0.19819   0.78060   1.000
    N39     N    0.90684   0.11906   0.44178   1.000
    O40     O    0.88211   0.22906   0.54627   1.000
    O41     O    0.89564   0.99289   0.42165   1.000
    O42     O    0.79518   0.22038   0.44138   1.000
    O43     O    0.88990   0.02433   0.33172   1.000
    N44     N    0.00440   0.74760   0.73594   1.000
    O45     O    0.14671   0.69540   0.76006   1.000
    O46     O    0.86060   0.79974   0.71781   1.000
    N47     N    0.07857   0.36609   0.06996   1.000
    O48     O    0.20815   0.28485   0.05061   1.000
    O49     O    0.10557   0.46359   0.17682   1.000
    O50     O    0.10090   0.49048   0.08662   1.000
    O51     O    0.10554   0.26302   0.96211   1.000
    N52     N    0.09424   0.87835   0.55888   1.000
    O53     O    0.11153   0.97280   0.66946   1.000
    O54     O    0.20599   0.77704   0.55803   1.000
    O55     O    0.10574   0.00408   0.57882   1.000
    O56     O    0.12011   0.76787   0.45559   1.000
    N57     N    0.92593   0.63180   0.93110   1.000
    O58     O    0.89862   0.53370   0.82489   1.000
    O59     O    0.90333   0.50706   0.91498   1.000
    O60     O    0.79615   0.71401   0.94881   1.000
    O61     O    0.89852   0.73436   0.03930   1.000
    N62     N    0.42424   0.36473   0.56860   1.000
    O63     O    0.29347   0.28434   0.55238   1.000
    O64     O    0.39413   0.26111   0.46152   1.000
    O65     O    0.40367   0.49082   0.58555   1.000
    O66     O    0.00057   0.12290   0.47312   1.000
    O67     O    0.39831   0.47401   0.66188   1.000
    O68     O    0.01531   0.62283   0.96939   1.000
    O69     O    0.48747   0.62439   0.46779   1.000
    O70     O    0.51300   0.37226   0.52895   1.000
    O71     O    0.98938   0.37459   0.03218   1.000
    O72     O    0.60226   0.52238   0.33508   1.000
    O73     O    0.50217   0.87615   0.02689   1.000
    O74     O    0.00028   0.87403   0.52740   1.000
    O75     O    0.50098   0.12248   0.96979   1.000
loop_
    _geom_bond_atom_site_label_1
    _geom_bond_atom_site_label_2
    _geom_bond_distance
    _geom_bond_site_symmetry_2
    _ccdc_geom_bond_type
    N16    O17       1.91265  1_565   S
    Zr0    O17       2.42891      .   S
    N16    O18       2.22234      .   S
    Zr11   O18       3.12300  1_545   S
    N16    O19       2.24701      .   S
    Zr2    O19       3.19202      .   S
    N16    O20       2.30685  1_554   S
    Zr13   O20       3.24300      .   S
    N21    O22       2.27550      .   S
    Zr4    O22       3.21831      .   S
    N21    O23       1.93257      .   S
    Zr6    O23       2.49553      .   S
    N21    O24       2.29069      .   S
    Zr3    O24       3.22767      .   S
    N25    O26       2.27297      .   S
    Zr15   O26       3.27734      .   S
    N25    O27       2.26978      .   S
    Zr1    O27       3.27013      .   S
    N28    O29       2.27172  1_655   S
    Zr11   O29       3.27503      .   S
    N28    O30       2.27025      .   S
    Zr5    O30       3.27337      .   S
    N31    O32       2.30065  1_556   S
    Zr5    O32       3.23475      .   S
    N31    O33       2.24748      .   S
    Zr10   O33       3.18854      .   S
    N31    O34       1.90545  1_545   S
    Zr8    O34       2.41624      .   S
    N31    O35       2.22609      .   S
    Zr3    O35       3.12578  1_565   S
    N36    O37       2.27013      .   S
    Zr9    O37       3.27039      .   S
    N36    O38       2.27297      .   S
    Zr7    O38       3.27613      .   S
    N39    O40       2.31268      .   S
    Zr9    O40       3.25226      .   S
    N39    O41       1.92318  1_545   S
    Zr4    O41       2.43879      .   S
    N39    O42       2.24180      .   S
    Zr6    O42       3.18565      .   S
    N39    O43       2.21439      .   S
    Zr15   O43       3.11236  1_565   S
    N44    O45       2.26976      .   S
    Zr13   O45       3.27108      .   S
    N44    O46       2.27308  1_455   S
    Zr3    O46       3.27796      .   S
    N47    O48       2.27065      .   S
    Zr0    O48       3.21338      .   S
    N47    O49       2.22286      .   S
    Zr1    O49       3.10865      .   S
    N47    O50       1.91295      .   S
    Zr2    O50       2.46083      .   S
    N47    O51       2.28730  1_554   S
    Zr7    O51       3.22193      .   S
    N52    O53       2.21889      .   S
    Zr7    O53       3.11706  1_545   S
    N52    O54       2.24155      .   S
    Zr14   O54       3.18515      .   S
    N52    O55       1.91676  1_565   S
    Zr12   O55       2.42949      .   S
    N52    O56       2.30727      .   S
    Zr1    O56       3.24525      .   S
    N57    O58       2.22166      .   S
    Zr9    O58       3.10478      .   S
    N57    O59       1.91812      .   S
    Zr10   O59       2.47730      .   S
    N57    O60       2.27828      .   S
    Zr8    O60       3.22359      .   S
    N57    O61       2.28761  1_556   S
    Zr15   O61       3.22219      .   S
    N62    O63       2.27396      .   S
    Zr12   O63       3.21770      .   S
    N62    O64       2.29138      .   S
    Zr11   O64       3.22845      .   S
    N62    O65       1.93406      .   S
    Zr14   O65       2.50043      .   S
    Zr12   O66       2.07806      .   S
    N39    O66       1.46044  1_655   S
    Zr13   O67       3.11104      .   S
    N62    O67       2.18976      .   S
    Zr2    O68       2.06651  1_554   S
    N57    O68       1.45535  1_655   S
    Zr14   O69       2.06755      .   S
    N21    O69       1.45704      .   S
    Zr6    O70       2.06617      .   S
    N62    O70       1.45622      .   S
    Zr10   O71       2.07112  1_556   S
    N47    O71       1.44840  1_455   S
    Zr5    O72       3.10818      .   S
    N21    O72       2.18891      .   S
    Zr8    O73       2.08232  1_556   S
    N16    O73       1.46412      .   S
    Zr4    O74       2.08373  1_655   S
    N52    O74       1.46462      .   S
    Zr0    O75       2.07899  1_554   S
    N31    O75       1.46155      .   S
