# CIF file generated by openbabel 2.4.90, see http://openbabel.sf.net
data_I
_chemical_name_common ''
_cell_length_a 14.637
_cell_length_b 15.146
_cell_length_c 16.082
_cell_angle_alpha 93.928
_cell_angle_beta 90.101
_cell_angle_gamma 89.975
_space_group_name_H-M_alt 'P 1'
_space_group_name_Hall 'P 1'
loop_
    _symmetry_equiv_pos_as_xyz
    x,y,z
loop_
    _atom_site_label
    _atom_site_type_symbol
    _atom_site_fract_x
    _atom_site_fract_y
    _atom_site_fract_z
    _atom_site_occupancy
    Zr0     Zr   0.38223   0.15543   0.03555   1.000
    Zr1     Zr   0.15592   0.62159   0.30208   1.000
    Zr2     Zr   0.12897   0.64142   0.04496   1.000
    Zr3     Zr   0.65278   0.87366   0.69137   1.000
    Zr4     Zr   0.88269   0.84015   0.45931   1.000
    Zr5     Zr   0.64896   0.37453   0.19814   1.000
    Zr6     Zr   0.62488   0.35170   0.45187   1.000
    Zr7     Zr   0.14840   0.12566   0.80512   1.000
    Zr8     Zr   0.62159   0.84405   0.96141   1.000
    Zr9     Zr   0.84803   0.37478   0.70119   1.000
    Zr10    Zr   0.87476   0.35536   0.95743   1.000
    Zr11    Zr   0.34755   0.12291   0.30543   1.000
    Zr12    Zr   0.11797   0.15619   0.54101   1.000
    Zr13    Zr   0.35162   0.62216   0.79881   1.000
    Zr14    Zr   0.37550   0.64492   0.54490   1.000
    Zr15    Zr   0.85505   0.87034   0.19719   1.000
    N16     N    0.40776   0.87864   0.05688   1.000
    O17     O    0.39499   0.00412   0.07545   1.000
    O18     O    0.38761   0.97241   0.16777   1.000
    O19     O    0.29756   0.77535   0.05617   1.000
    O20     O    0.38466   0.76812   0.95302   1.000
    O21     O    0.52139   0.88728   0.03094   1.000
    O22     O    0.48296   0.86502   0.02284   1.000
    N23     N    0.57652   0.63153   0.42846   1.000
    O24     O    0.50590   0.63698   0.47028   1.000
    O25     O    0.60170   0.53355   0.32227   1.000
    O26     O    0.70731   0.71183   0.44619   1.000
    O27     O    0.59680   0.50551   0.41133   1.000
    O28     O    0.60282   0.51122   0.34790   1.000
    O29     O    0.46905   0.61179   0.46531   1.000
    O30     O    0.60662   0.73520   0.53544   1.000
    N31     N    0.50086   0.74879   0.23484   1.000
    O32     O    0.64548   0.79946   0.21881   1.000
    O33     O    0.35929   0.69608   0.26052   1.000
    N34     N    0.99591   0.24889   0.26261   1.000
    O35     O    0.13969   0.19672   0.28019   1.000
    O36     O    0.85373   0.30123   0.23804   1.000
    N37     N    0.59521   0.11933   0.93980   1.000
    O38     O    0.61801   0.22926   0.04369   1.000
    O39     O    0.48171   0.11154   0.96578   1.000
    O40     O    0.70572   0.22247   0.94264   1.000
    O41     O    0.60838   0.99437   0.92127   1.000
    O42     O    0.61407   0.02509   0.82874   1.000
    O43     O    0.52025   0.13342   0.97380   1.000
    N44     N    0.50094   0.24960   0.76350   1.000
    O45     O    0.64325   0.30166   0.73962   1.000
    O46     O    0.35680   0.19819   0.78060   1.000
    N47     N    0.90684   0.11906   0.44178   1.000
    O48     O    0.88211   0.22906   0.54627   1.000
    O49     O    0.89564   0.99289   0.42165   1.000
    O50     O    0.98106   0.13347   0.47715   1.000
    O51     O    0.79518   0.22038   0.44138   1.000
    O52     O    0.02007   0.11233   0.46909   1.000
    O53     O    0.88990   0.02433   0.33172   1.000
    N54     N    0.00440   0.74760   0.73594   1.000
    O55     O    0.14671   0.69540   0.76006   1.000
    O56     O    0.86060   0.79974   0.71781   1.000
    N57     N    0.07857   0.36609   0.06996   1.000
    O58     O    0.97078   0.38766   0.03478   1.000
    O59     O    0.20815   0.28485   0.05061   1.000
    O60     O    0.00798   0.36152   0.02958   1.000
    O61     O    0.10557   0.46359   0.17682   1.000
    O62     O    0.10090   0.49048   0.08662   1.000
    O63     O    0.10554   0.26302   0.96211   1.000
    N64     N    0.09424   0.87835   0.55888   1.000
    O65     O    0.11153   0.97280   0.66946   1.000
    O66     O    0.20599   0.77704   0.55803   1.000
    O67     O    0.98073   0.88454   0.53135   1.000
    O68     O    0.10574   0.00408   0.57882   1.000
    O69     O    0.01983   0.86351   0.52346   1.000
    O70     O    0.12011   0.76787   0.45559   1.000
    N71     N    0.92593   0.63180   0.93110   1.000
    O72     O    0.89862   0.53370   0.82489   1.000
    O73     O    0.90333   0.50706   0.91498   1.000
    O74     O    0.03331   0.60965   0.96685   1.000
    O75     O    0.79615   0.71401   0.94881   1.000
    O76     O    0.99732   0.63600   0.97193   1.000
    O77     O    0.89852   0.73436   0.03930   1.000
    N78     N    0.42424   0.36473   0.56860   1.000
    O79     O    0.29347   0.28434   0.55238   1.000
    O80     O    0.39413   0.26111   0.46152   1.000
    O81     O    0.39891   0.46289   0.67472   1.000
    O82     O    0.53126   0.38512   0.53121   1.000
    O83     O    0.40367   0.49082   0.58555   1.000
    O84     O    0.39770   0.48513   0.64903   1.000
    O85     O    0.49474   0.35940   0.52669   1.000
loop_
    _geom_bond_atom_site_label_1
    _geom_bond_atom_site_label_2
    _geom_bond_distance
    _geom_bond_site_symmetry_2
    _ccdc_geom_bond_type
    N16    O17       1.91265  1_565   S
    Zr0    O17       2.42891      .   S
    N16    O18       2.22234      .   S
    Zr11   O18       3.12300  1_545   S
    N16    O19       2.24701      .   S
    Zr2    O19       3.19202      .   S
    N16    O20       2.30685  1_554   S
    Zr13   O20       3.24300      .   S
    N16    O21       1.72262      .   S
    Zr8    O21       1.93256  1_556   S
    N16    O22       1.24108      .   S
    Zr8    O22       2.27106  1_556   S
    N23    O24       1.23387      .   S
    Zr14   O24       2.25516      .   S
    N23    O25       2.21567      .   S
    Zr5    O25       3.09990      .   S
    N23    O26       2.27550      .   S
    Zr4    O26       3.21831      .   S
    N23    O27       1.93257      .   S
    Zr6    O27       2.49553      .   S
    N23    O28       2.19664      .   S
    Zr5    O28       3.14070      .   S
    N23    O29       1.71545      .   S
    Zr14   O29       1.91913      .   S
    N23    O30       2.29069      .   S
    Zr3    O30       3.22767      .   S
    N31    O32       2.27297      .   S
    Zr15   O32       3.27734      .   S
    N31    O33       2.26978      .   S
    Zr1    O33       3.27013      .   S
    N34    O35       2.27172  1_655   S
    Zr11   O35       3.27503      .   S
    N34    O36       2.27025      .   S
    Zr5    O36       3.27337      .   S
    N37    O38       2.30065  1_556   S
    Zr5    O38       3.23475      .   S
    N37    O39       1.71973      .   S
    Zr0    O39       1.92975  1_554   S
    N37    O40       2.24748      .   S
    Zr10   O40       3.18854      .   S
    N37    O41       1.90545  1_545   S
    Zr8    O41       2.41624      .   S
    N37    O42       2.22609      .   S
    Zr3    O42       3.12578  1_565   S
    N37    O43       1.23859      .   S
    Zr0    O43       2.26711  1_554   S
    N44    O45       2.27013      .   S
    Zr9    O45       3.27039      .   S
    N44    O46       2.27297      .   S
    Zr7    O46       3.27613      .   S
    N47    O48       2.31268      .   S
    Zr9    O48       3.25226      .   S
    N47    O49       1.92318  1_545   S
    Zr4    O49       2.43879      .   S
    N47    O50       1.23786      .   S
    Zr12   O50       2.26585  1_455   S
    N47    O51       2.24180      .   S
    Zr6    O51       3.18565      .   S
    N47    O52       1.71852  1_655   S
    Zr12   O52       1.92937      .   S
    N47    O53       2.21439      .   S
    Zr15   O53       3.11236  1_565   S
    N54    O55       2.26976      .   S
    Zr13   O55       3.27108      .   S
    N54    O56       2.27308  1_455   S
    Zr3    O56       3.27796      .   S
    N57    O58       1.71404  1_455   S
    Zr10   O58       1.91641  1_556   S
    N57    O59       2.27065      .   S
    Zr0    O59       3.21338      .   S
    N57    O60       1.21885      .   S
    Zr10   O60       2.26589  1_656   S
    N57    O61       2.22286      .   S
    Zr1    O61       3.10865      .   S
    N57    O62       1.91295      .   S
    Zr2    O62       2.46083      .   S
    N57    O63       2.28730  1_554   S
    Zr7    O63       3.22193      .   S
    N64    O65       2.21889      .   S
    Zr7    O65       3.11706  1_545   S
    N64    O66       2.24155      .   S
    Zr14   O66       3.18515      .   S
    N64    O67       1.72293  1_455   S
    Zr4    O67       1.93430      .   S
    N64    O68       1.91676  1_565   S
    Zr12   O68       2.42949      .   S
    N64    O69       1.24162      .   S
    Zr4    O69       2.27205  1_655   S
    N64    O70       2.30727      .   S
    Zr1    O70       3.24525      .   S
    N71    O72       2.22166      .   S
    Zr9    O72       3.10478      .   S
    N71    O73       1.91812      .   S
    Zr10   O73       2.47730      .   S
    N71    O74       1.71352  1_655   S
    Zr2    O74       1.91886  1_554   S
    N71    O75       2.27828      .   S
    Zr8    O75       3.22359      .   S
    N71    O76       1.23262      .   S
    Zr2    O76       2.25351  1_454   S
    N71    O77       2.28761  1_556   S
    Zr15   O77       3.22219      .   S
    N78    O79       2.27396      .   S
    Zr12   O79       3.21770      .   S
    N78    O80       2.29138      .   S
    Zr11   O80       3.22845      .   S
    N78    O81       2.21687      .   S
    Zr13   O81       3.10238      .   S
    N78    O82       1.71462      .   S
    Zr6    O82       1.91813      .   S
    N78    O83       1.93406      .   S
    Zr14   O83       2.50043      .   S
    N78    O84       2.19712      .   S
    Zr13   O84       3.14392      .   S
    N78    O85       1.23317      .   S
    Zr6    O85       2.25352      .   S
