# CIF file generated by openbabel 2.4.90, see http://openbabel.sf.net
data_I
_chemical_name_common ''
_cell_length_a 18.425
_cell_length_b 18.432
_cell_length_c 18.433
_cell_angle_alpha 60.135
_cell_angle_beta 60.158
_cell_angle_gamma 60.157
_space_group_name_H-M_alt 'P 1'
_space_group_name_Hall 'P 1'
loop_
    _symmetry_equiv_pos_as_xyz
    x,y,z
loop_
    _atom_site_label
    _atom_site_type_symbol
    _atom_site_fract_x
    _atom_site_fract_y
    _atom_site_fract_z
    _atom_site_occupancy
    C0      C    0.11101   0.38897   0.11094   1.000
    C1      C    0.38902   0.11114   0.38911   1.000
    C2      C    0.11101   0.11095   0.38895   1.000
    C3      C    0.38902   0.38913   0.11110   1.000
    C4      C    0.11112   0.38912   0.38910   1.000
    C5      C    0.38898   0.11094   0.11095   1.000
    C6      C    0.61104   0.88907   0.88903   1.000
    C7      C    0.88890   0.61088   0.61087   1.000
    C8      C    0.88901   0.88906   0.61102   1.000
    C9      C    0.61100   0.61088   0.88884   1.000
    C10     C    0.61100   0.88887   0.61080   1.000
    C11     C    0.88900   0.61104   0.88900   1.000
