# CIF file generated by openbabel 2.4.90, see http://openbabel.sf.net
data_I
_chemical_name_common ''
_cell_length_a 18.425
_cell_length_b 18.432
_cell_length_c 18.433
_cell_angle_alpha 60.135
_cell_angle_beta 60.158
_cell_angle_gamma 60.157
_space_group_name_H-M_alt 'P 1'
_space_group_name_Hall 'P 1'
loop_
    _symmetry_equiv_pos_as_xyz
    x,y,z
loop_
    _atom_site_label
    _atom_site_type_symbol
    _atom_site_fract_x
    _atom_site_fract_y
    _atom_site_fract_z
    _atom_site_occupancy
    N0      N    0.50001   0.00000   0.99999   1.000
    N1      N    0.00001   0.50000   0.49999   1.000
    N2      N    0.50001   0.50000   0.99997   1.000
    N3      N    0.00001   0.50000   0.99998   1.000
    N4      N    0.50001   0.00000   0.49997   1.000
    N5      N    0.00001   0.00000   0.49999   1.000
    Zr6     Zr   0.74999   0.74996   0.74989   1.000
    O7      O    0.64558   0.64554   0.85433   1.000
    O8      O    0.85442   0.85441   0.64553   1.000
    O9      O    0.85442   0.64557   0.85436   1.000
    O10     O    0.64559   0.85441   0.85436   1.000
    O11     O    0.85440   0.64554   0.64550   1.000
    O12     O    0.64558   0.85438   0.64547   1.000
    Zr13    Zr   0.25003   0.25005   0.25002   1.000
    O14     O    0.14560   0.14560   0.35441   1.000
    O15     O    0.35444   0.14563   0.35444   1.000
    O16     O    0.35444   0.35447   0.14559   1.000
    O17     O    0.14560   0.35444   0.14558   1.000
    O18     O    0.35443   0.14560   0.14558   1.000
    O19     O    0.14562   0.35447   0.35444   1.000
loop_
    _geom_bond_atom_site_label_1
    _geom_bond_atom_site_label_2
    _geom_bond_distance
    _geom_bond_site_symmetry_2
    _ccdc_geom_bond_type
    Zr6    O7        2.72405      .   S
    N2     O7        3.79727      .   S
    Zr6    O8        2.72470      .   S
    N5     O8        3.79830  1_445   S
    Zr6    O9        2.72496      .   S
    N3     O9        3.79877  1_455   S
    Zr6    O10       2.72683      .   S
    N0     O10       3.80082  1_545   S
    Zr6    O11       2.72525      .   S
    N1     O11       3.79858  1_455   S
    Zr6    O12       2.72400      .   S
    N4     O12       3.79688  1_545   S
    Zr13   O14       2.72471      .   S
    N5     O14       3.79830      .   S
    Zr13   O15       2.72410      .   S
    N4     O15       3.79725      .   S
    Zr13   O16       2.72404      .   S
    N2     O16       3.79727  1_556   S
    Zr13   O17       2.72463      .   S
    N3     O17       3.79836  1_556   S
    Zr13   O18       2.72641      .   S
    N0     O18       3.80041  1_556   S
    Zr13   O19       2.72564      .   S
    N1     O19       3.79899      .   S
