# CIF file generated by openbabel 2.4.90, see http://openbabel.sf.net
data_I
_chemical_name_common ''
_cell_length_a 18.425
_cell_length_b 18.432
_cell_length_c 18.433
_cell_angle_alpha 60.135
_cell_angle_beta 60.158
_cell_angle_gamma 60.157
_space_group_name_H-M_alt 'P 1'
_space_group_name_Hall 'P 1'
loop_
    _symmetry_equiv_pos_as_xyz
    x,y,z
loop_
    _atom_site_label
    _atom_site_type_symbol
    _atom_site_fract_x
    _atom_site_fract_y
    _atom_site_fract_z
    _atom_site_occupancy
    Zr0     Zr   0.20660   0.38050   0.20674   1.000
    Zr1     Zr   0.38046   0.20664   0.20662   1.000
    Zr2     Zr   0.20643   0.20634   0.20633   1.000
    Zr3     Zr   0.20660   0.20675   0.38048   1.000
    Zr4     Zr   0.61956   0.79337   0.79335   1.000
    Zr5     Zr   0.79342   0.61951   0.79323   1.000
    Zr6     Zr   0.79360   0.79367   0.79364   1.000
    Zr7     Zr   0.79342   0.79326   0.61900   1.000
    Zr8     Zr   0.11101   0.38897   0.11094   1.000
    Zr9     Zr   0.38902   0.11114   0.38911   1.000
    Zr10    Zr   0.11101   0.11095   0.38895   1.000
    Zr11    Zr   0.38902   0.38913   0.11110   1.000
    Zr12    Zr   0.11112   0.38912   0.38910   1.000
    Zr13    Zr   0.38898   0.11094   0.11095   1.000
    Zr14    Zr   0.61104   0.88907   0.88903   1.000
    Zr15    Zr   0.88890   0.61088   0.61087   1.000
    Zr16    Zr   0.88901   0.88906   0.61102   1.000
    Zr17    Zr   0.61100   0.61088   0.88884   1.000
    Zr18    Zr   0.61100   0.88887   0.61080   1.000
    Zr19    Zr   0.88900   0.61104   0.88900   1.000
    Zr20    Zr   0.24997   0.25003   0.25001   1.000
    Zr21    Zr   0.75005   0.74998   0.74996   1.000
    Zr22    Zr   0.13319   0.42860   0.13318   1.000
    Zr23    Zr   0.42860   0.13330   0.30532   1.000
    Zr24    Zr   0.13302   0.30516   0.13291   1.000
    Zr25    Zr   0.30523   0.13329   0.42871   1.000
    Zr26    Zr   0.13301   0.13292   0.30515   1.000
    Zr27    Zr   0.42860   0.30534   0.13300   1.000
    Zr28    Zr   0.13320   0.13318   0.42858   1.000
    Zr29    Zr   0.30523   0.42874   0.13328   1.000
    Zr30    Zr   0.13328   0.30533   0.42870   1.000
    Zr31    Zr   0.42862   0.13316   0.13315   1.000
    Zr32    Zr   0.13328   0.42873   0.30531   1.000
    Zr33    Zr   0.30515   0.13293   0.13293   1.000
    Zr34    Zr   0.57140   0.86685   0.86682   1.000
    Zr35    Zr   0.86674   0.57128   0.69466   1.000
    Zr36    Zr   0.69487   0.86708   0.86704   1.000
    Zr37    Zr   0.86674   0.69468   0.57127   1.000
    Zr38    Zr   0.86701   0.86709   0.69482   1.000
    Zr39    Zr   0.69479   0.57127   0.86669   1.000
    Zr40    Zr   0.86682   0.86682   0.57100   1.000
    Zr41    Zr   0.57142   0.69467   0.86660   1.000
    Zr42    Zr   0.69479   0.86672   0.57126   1.000
    Zr43    Zr   0.86683   0.57141   0.86678   1.000
    Zr44    Zr   0.57142   0.86670   0.69465   1.000
    Zr45    Zr   0.86700   0.69485   0.86706   1.000
    O46     O    0.12202   0.34707   0.12192   1.000
    O47     O    0.12210   0.40878   0.12206   1.000
    O48     O    0.34706   0.12193   0.12194   1.000
    O49     O    0.40880   0.12205   0.12205   1.000
    O50     O    0.40881   0.34723   0.12205   1.000
    O51     O    0.34712   0.40893   0.12219   1.000
    O52     O    0.16972   0.25575   0.16962   1.000
    O53     O    0.25579   0.16963   0.16963   1.000
    O54     O    0.40453   0.25599   0.16981   1.000
    O55     O    0.40454   0.16990   0.16989   1.000
    O56     O    0.16990   0.40455   0.16996   1.000
    O57     O    0.25591   0.40462   0.17001   1.000
    O58     O    0.16972   0.16963   0.25574   1.000
    O59     O    0.31522   0.22833   0.22832   1.000
    O60     O    0.40453   0.16997   0.25597   1.000
    O61     O    0.22829   0.31526   0.22838   1.000
    O62     O    0.16994   0.40461   0.25603   1.000
    O63     O    0.12201   0.12193   0.34705   1.000
    O64     O    0.12220   0.40893   0.34721   1.000
    O65     O    0.40881   0.12222   0.34721   1.000
    O66     O    0.16990   0.16997   0.40453   1.000
    O67     O    0.16994   0.25604   0.40459   1.000
    O68     O    0.25592   0.17002   0.40460   1.000
    O69     O    0.12211   0.12206   0.40877   1.000
    O70     O    0.12220   0.34723   0.40890   1.000
    O71     O    0.34713   0.12221   0.40891   1.000
    O72     O    0.87791   0.87794   0.59101   1.000
    O73     O    0.83012   0.83004   0.59500   1.000
    O74     O    0.65289   0.87780   0.59103   1.000
    O75     O    0.74410   0.82999   0.59513   1.000
    O76     O    0.87782   0.65278   0.59107   1.000
    O77     O    0.83008   0.74397   0.59514   1.000
    O78     O    0.59121   0.87779   0.65272   1.000
    O79     O    0.87782   0.59108   0.65277   1.000
    O80     O    0.87801   0.87807   0.65292   1.000
    O81     O    0.59549   0.83004   0.74400   1.000
    O82     O    0.83008   0.59539   0.74395   1.000
    O83     O    0.83030   0.83038   0.74423   1.000
    O84     O    0.77173   0.68475   0.77160   1.000
    O85     O    0.68480   0.77168   0.77165   1.000
    O86     O    0.74410   0.59539   0.82996   1.000
    O87     O    0.83012   0.59546   0.83000   1.000
    O88     O    0.59549   0.74402   0.82998   1.000
    O89     O    0.59548   0.83011   0.83008   1.000
    O90     O    0.74423   0.83038   0.83034   1.000
    O91     O    0.83030   0.74426   0.83035   1.000
    O92     O    0.59121   0.65277   0.87772   1.000
    O93     O    0.65289   0.59107   0.87776   1.000
    O94     O    0.87791   0.59122   0.87789   1.000
    O95     O    0.59122   0.87796   0.87792   1.000
    O96     O    0.65296   0.87808   0.87804   1.000
    O97     O    0.87800   0.65294   0.87803   1.000
    O98     O    0.22820   0.22818   0.22817   1.000
    O99     O    0.22829   0.22839   0.31524   1.000
    O100    O    0.77182   0.77183   0.77180   1.000
    O101    O    0.77173   0.77162   0.68448   1.000
    N102    N    0.50001   0.00000   0.99999   1.000
    O103    O    0.45883   0.04114   0.04114   1.000
    O104    O    0.54119   0.95886   0.95884   1.000
    N105    N    0.00001   0.50000   0.49999   1.000
    O106    O    0.04121   0.45888   0.45887   1.000
    O107    O    0.95881   0.54112   0.54111   1.000
    N108    N    0.50001   0.50000   0.99997   1.000
    O109    O    0.54117   0.54112   0.95877   1.000
    O110    O    0.45885   0.45889   0.04116   1.000
    N111    N    0.00001   0.50000   0.99998   1.000
    O112    O    0.04118   0.45883   0.04113   1.000
    O113    O    0.95884   0.54118   0.95883   1.000
    N114    N    0.50001   0.00000   0.49997   1.000
    O115    O    0.45885   0.04121   0.45886   1.000
    O116    O    0.54117   0.95880   0.54106   1.000
    N117    N    0.00001   0.00000   0.49999   1.000
    O118    O    0.95884   0.95887   0.54117   1.000
    O119    O    0.04118   0.04114   0.45881   1.000
loop_
    _geom_bond_atom_site_label_1
    _geom_bond_atom_site_label_2
    _geom_bond_distance
    _geom_bond_site_symmetry_2
    _ccdc_geom_bond_type
    Zr8    O46       0.63866      .   S
    Zr24   O46       0.63866      .   S
    Zr8    O47       0.63851      .   S
    Zr22   O47       0.63851      .   S
    Zr13   O48       0.63867      .   S
    Zr33   O48       0.63867      .   S
    Zr13   O49       0.63857      .   S
    Zr31   O49       0.63857      .   S
    Zr11   O50       0.63856      .   S
    Zr27   O50       0.63856      .   S
    Zr11   O51       0.63855      .   S
    Zr29   O51       0.63855      .   S
    Zr24   O52       0.98657      .   S
    Zr2    O52       0.98657      .   S
    Zr33   O53       0.98674      .   S
    Zr2    O53       0.98674      .   S
    Zr27   O54       0.98582      .   S
    Zr1    O54       0.98582      .   S
    Zr31   O55       0.98618      .   S
    Zr1    O55       0.98618      .   S
    Zr22   O56       0.98595      .   S
    Zr0    O56       0.98595      .   S
    Zr29   O57       0.98571      .   S
    Zr0    O57       0.98571      .   S
    Zr2    O58       0.98661      .   S
    Zr26   O58       0.98661      .   S
    Zr1    O59       0.98353      .   S
    Zr20   O59       0.98353      .   S
    Zr1    O60       0.98581      .   S
    Zr23   O60       0.98581      .   S
    Zr0    O61       0.98355      .   S
    Zr20   O61       0.98355      .   S
    Zr0    O62       0.98580      .   S
    Zr32   O62       0.98580      .   S
    Zr26   O63       0.63866      .   S
    Zr10   O63       0.63866      .   S
    Zr32   O64       0.63860      .   S
    Zr12   O64       0.63860      .   S
    Zr23   O65       0.63862      .   S
    Zr9    O65       0.63862      .   S
    Zr3    O66       0.98596      .   S
    Zr28   O66       0.98596      .   S
    Zr3    O67       0.98577      .   S
    Zr30   O67       0.98577      .   S
    Zr3    O68       0.98567      .   S
    Zr25   O68       0.98567      .   S
    Zr10   O69       0.63854      .   S
    Zr28   O69       0.63854      .   S
    Zr12   O70       0.63857      .   S
    Zr30   O70       0.63857      .   S
    Zr9    O71       0.63854      .   S
    Zr25   O71       0.63854      .   S
    Zr40   O72       0.64174      .   S
    Zr16   O72       0.64174      .   S
    Zr40   O73       0.98617      .   S
    Zr7    O73       0.98617      .   S
    Zr42   O74       0.63847      .   S
    Zr18   O74       0.63847      .   S
    Zr42   O75       0.98311      .   S
    Zr7    O75       0.98311      .   S
    Zr37   O76       0.63858      .   S
    Zr15   O76       0.63858      .   S
    Zr37   O77       0.98321      .   S
    Zr7    O77       0.98321      .   S
    Zr18   O78       0.63904      .   S
    Zr44   O78       0.63904      .   S
    Zr15   O79       0.63860      .   S
    Zr35   O79       0.63860      .   S
    Zr16   O80       0.63866      .   S
    Zr38   O80       0.63866      .   S
    Zr44   O81       0.98580      .   S
    Zr4    O81       0.98580      .   S
    Zr35   O82       0.98580      .   S
    Zr5    O82       0.98580      .   S
    Zr38   O83       0.98660      .   S
    Zr6    O83       0.98660      .   S
    Zr21   O84       0.98355      .   S
    Zr5    O84       0.98355      .   S
    Zr21   O85       0.98353      .   S
    Zr4    O85       0.98353      .   S
    Zr5    O86       0.98571      .   S
    Zr39   O86       0.98571      .   S
    Zr5    O87       0.98591      .   S
    Zr43   O87       0.98591      .   S
    Zr4    O88       0.98580      .   S
    Zr41   O88       0.98580      .   S
    Zr4    O89       0.98620      .   S
    Zr34   O89       0.98620      .   S
    Zr6    O90       0.98676      .   S
    Zr36   O90       0.98676      .   S
    Zr6    O91       0.98658      .   S
    Zr45   O91       0.98658      .   S
    Zr41   O92       0.63857      .   S
    Zr17   O92       0.63857      .   S
    Zr39   O93       0.63855      .   S
    Zr17   O93       0.63855      .   S
    Zr43   O94       0.63831      .   S
    Zr19   O94       0.63831      .   S
    Zr34   O95       0.63859      .   S
    Zr14   O95       0.63859      .   S
    Zr36   O96       0.63867      .   S
    Zr14   O96       0.63867      .   S
    Zr45   O97       0.63870      .   S
    Zr19   O97       0.63870      .   S
    Zr20   O98       0.98389      .   S
    Zr2    O98       0.98389      .   S
    Zr20   O99       0.98360      .   S
    Zr3    O99       0.98360      .   S
    Zr21   O100      0.98390      .   S
    Zr6    O100      0.98390      .   S
    Zr21   O101      0.98730      .   S
    Zr7    O101      0.98730      .   S
    N102   O103      1.07400  1_556   S
    Zr13   O103      1.82209      .   S
    N102   O104      1.07399  1_545   S
    Zr14   O104      1.82206      .   S
    N105   O106      1.07335      .   S
    Zr12   O106      1.82105      .   S
    N105   O107      1.07333  1_455   S
    Zr15   O107      1.82103      .   S
    N108   O109      1.07322      .   S
    Zr17   O109      1.82087      .   S
    N108   O110      1.07323  1_556   S
    Zr11   O110      1.82088      .   S
    N111   O112      1.07373  1_556   S
    Zr8    O112      1.82164      .   S
    N111   O113      1.07381  1_455   S
    Zr19   O113      1.82196      .   S
    N114   O115      1.07315      .   S
    Zr9    O115      1.82080      .   S
    N114   O116      1.07288  1_545   S
    Zr18   O116      1.82059      .   S
    N117   O118      1.07359  1_445   S
    Zr16   O118      1.82153      .   S
    N117   O119      1.07359      .   S
    Zr10   O119      1.82153      .   S
