# CIF file generated by openbabel 2.4.90, see http://openbabel.sf.net
data_I
_chemical_name_common ''
_cell_length_a 15.614
_cell_length_b 17.228
_cell_length_c 18.405
_cell_angle_alpha 89.946
_cell_angle_beta 90.001
_cell_angle_gamma 90.006
_space_group_name_H-M_alt 'P 1'
_space_group_name_Hall 'P 1'
loop_
    _symmetry_equiv_pos_as_xyz
    x,y,z
loop_
    _atom_site_label
    _atom_site_type_symbol
    _atom_site_fract_x
    _atom_site_fract_y
    _atom_site_fract_z
    _atom_site_occupancy
    H0      H    0.46445   0.80169   0.35914   1.000
    H1      H    0.53908   0.72457   0.35739   1.000
    H2      H    0.60128   0.94361   0.25531   1.000
    H3      H    0.50167   0.93213   0.29904   1.000
    H4      H    0.73896   0.95146   0.33011   1.000
    H5      H    0.73325   0.94497   0.42595   1.000
    H6      H    0.67604   0.73233   0.43143   1.000
    H7      H    0.69694   0.81559   0.48612   1.000
    H8      H    0.59111   0.92756   0.48915   1.000
    H9      H    0.49487   0.92249   0.43897   1.000
    H10     H    0.70817   0.83202   0.25155   1.000
    H11     H    0.68343   0.74193   0.29406   1.000
    H12     H    0.03554   0.19829   0.85933   1.000
    H13     H    0.96086   0.27538   0.85742   1.000
    H14     H    0.89905   0.05631   0.75565   1.000
    H15     H    0.99850   0.06793   0.79958   1.000
    H16     H    0.76107   0.04844   0.83036   1.000
    H17     H    0.76670   0.05490   0.92618   1.000
    H18     H    0.82385   0.26758   0.93130   1.000
    H19     H    0.80292   0.18432   0.98618   1.000
    H20     H    0.90861   0.07238   0.98949   1.000
    H21     H    0.00000   0.07738   0.93949   1.000
    H22     H    0.79192   0.16785   0.75163   1.000
    H23     H    0.81658   0.25797   0.79398   1.000
    H24     H    0.53548   0.30165   0.14066   1.000
    H25     H    0.46075   0.22459   0.14253   1.000
    H26     H    0.39894   0.44365   0.24430   1.000
    H27     H    0.49844   0.43206   0.20045   1.000
    H28     H    0.26104   0.45159   0.16945   1.000
    H29     H    0.26680   0.44506   0.07364   1.000
    H30     H    0.32382   0.23243   0.06852   1.000
    H31     H    0.30296   0.31572   0.01370   1.000
    H32     H    0.40876   0.42763   0.01046   1.000
    H33     H    0.50508   0.42258   0.06055   1.000
    H34     H    0.29182   0.33215   0.24825   1.000
    H35     H    0.31647   0.24203   0.20590   1.000
    H36     H    0.96448   0.69842   0.64082   1.000
    H37     H    0.03923   0.77546   0.64250   1.000
    H38     H    0.10110   0.55637   0.74468   1.000
    H39     H    0.00155   0.56793   0.70086   1.000
    H40     H    0.23886   0.54850   0.66994   1.000
    H41     H    0.23323   0.55496   0.57410   1.000
    H42     H    0.17614   0.76764   0.56858   1.000
    H43     H    0.19700   0.68437   0.51389   1.000
    H44     H    0.09112   0.57245   0.51083   1.000
    H45     H    0.99486   0.57754   0.56098   1.000
    H46     H    0.20815   0.66787   0.74846   1.000
    H47     H    0.18350   0.75801   0.70599   1.000
    H48     H    0.53553   0.19830   0.64083   1.000
    H49     H    0.46089   0.27542   0.64258   1.000
    H50     H    0.39870   0.05638   0.74467   1.000
    H51     H    0.49831   0.06786   0.70093   1.000
    H52     H    0.26102   0.04853   0.66986   1.000
    H53     H    0.26672   0.05502   0.57400   1.000
    H54     H    0.32393   0.26766   0.56854   1.000
    H55     H    0.30304   0.18440   0.51385   1.000
    H56     H    0.40886   0.07243   0.51083   1.000
    H57     H    0.50510   0.07750   0.56101   1.000
    H58     H    0.29180   0.16797   0.74842   1.000
    H59     H    0.31654   0.25806   0.70591   1.000
    H60     H    0.96444   0.80170   0.14064   1.000
    H61     H    0.03912   0.72461   0.14255   1.000
    H62     H    0.10092   0.94368   0.24432   1.000
    H63     H    0.00147   0.93205   0.20039   1.000
    H64     H    0.23890   0.95155   0.16962   1.000
    H65     H    0.23328   0.94508   0.07379   1.000
    H66     H    0.17612   0.73241   0.06863   1.000
    H67     H    0.19705   0.81567   0.01379   1.000
    H68     H    0.09136   0.92761   0.01049   1.000
    H69     H    0.99498   0.92261   0.06040   1.000
    H70     H    0.20806   0.83214   0.24834   1.000
    H71     H    0.18340   0.74202   0.20599   1.000
    H72     H    0.46449   0.69833   0.85931   1.000
    H73     H    0.53922   0.77540   0.85744   1.000
    H74     H    0.60104   0.55634   0.75568   1.000
    H75     H    0.50154   0.56793   0.79952   1.000
    H76     H    0.73894   0.54840   0.83052   1.000
    H77     H    0.73318   0.55493   0.92634   1.000
    H78     H    0.67616   0.76756   0.93145   1.000
    H79     H    0.69701   0.68428   0.98627   1.000
    H80     H    0.59122   0.57236   0.98951   1.000
    H81     H    0.49490   0.57740   0.93943   1.000
    H82     H    0.70816   0.66785   0.75172   1.000
    H83     H    0.68351   0.75796   0.79407   1.000
    C84     C    0.57888   0.67317   0.79639   1.000
    C85     C    0.56959   0.58419   0.80207   1.000
    C86     C    0.60884   0.55487   0.87339   1.000
    C87     C    0.70487   0.57667   0.87568   1.000
    H88     H    0.03550   0.30157   0.35915   1.000
    H89     H    0.96074   0.22452   0.35739   1.000
    H90     H    0.89888   0.44362   0.25500   1.000
    H91     H    0.99843   0.43206   0.29911   1.000
    H92     H    0.76112   0.45149   0.33003   1.000
    H93     H    0.76675   0.44502   0.42587   1.000
    H94     H    0.82384   0.23234   0.43139   1.000
    H95     H    0.80297   0.31561   0.48608   1.000
    H96     H    0.90886   0.42754   0.48914   1.000
    H97     H    0.00000   0.42244   0.43899   1.000
    H98     H    0.79183   0.33211   0.25151   1.000
    H99     H    0.81647   0.24198   0.29398   1.000
    C100    C    0.53131   0.77662   0.49721   1.000
    C101    C    0.57218   0.81761   0.43269   1.000
    C102    C    0.53324   0.78789   0.36078   1.000
    C103    C    0.57888   0.82680   0.29622   1.000
    C104    C    0.56969   0.91580   0.30172   1.000
    C105    C    0.60891   0.94505   0.37303   1.000
    C106    C    0.70491   0.92321   0.37535   1.000
    C107    C    0.71513   0.83467   0.36993   1.000
    C108    C    0.66846   0.79564   0.43469   1.000
    C109    C    0.56309   0.90646   0.43817   1.000
    C110    C    0.67529   0.80513   0.29809   1.000
    C111    C    0.54035   0.79968   0.22417   1.000
    C112    C    0.60162   0.03361   0.37943   1.000
    C113    C    0.80863   0.80924   0.37576   1.000
    C114    C    0.96860   0.22332   0.99729   1.000
    C115    C    0.92773   0.18232   0.93283   1.000
    O116    O    0.48121   0.18655   0.44402   1.000
    O117    O    0.48500   0.29658   0.50912   1.000
    O118    O    0.50414   0.26156   0.77790   1.000
    O119    O    0.44431   0.15637   0.83137   1.000
    O120    O    0.43412   0.93015   0.67510   1.000
    C121    C    0.96673   0.21206   0.86089   1.000
    C122    C    0.92116   0.17315   0.79637   1.000
    C123    C    0.93044   0.08418   0.80207   1.000
    C124    C    0.89111   0.05487   0.87336   1.000
    C125    C    0.79509   0.07668   0.87557   1.000
    C126    C    0.78485   0.16523   0.87000   1.000
    C127    C    0.83145   0.20427   0.93473   1.000
    C128    C    0.93679   0.09344   0.93850   1.000
    C129    C    0.82474   0.19477   0.79814   1.000
    C130    C    0.95971   0.20025   0.72426   1.000
    C131    C    0.89833   0.96626   0.87968   1.000
    C132    C    0.69134   0.19066   0.87576   1.000
    C133    C    0.46861   0.27667   0.00000   1.000
    C134    C    0.42775   0.31767   0.06712   1.000
    C135    C    0.46668   0.28791   0.13907   1.000
    C136    C    0.42110   0.32682   0.20358   1.000
    C137    C    0.43039   0.41580   0.19790   1.000
    C138    C    0.39114   0.44512   0.12658   1.000
    C139    C    0.29511   0.42332   0.12430   1.000
    C140    C    0.28484   0.33477   0.12980   1.000
    C141    C    0.33146   0.29574   0.06516   1.000
    C142    C    0.43687   0.40655   0.06140   1.000
    C143    C    0.32468   0.30522   0.20177   1.000
    C144    C    0.45965   0.29971   0.27570   1.000
    C145    C    0.39838   0.53370   0.12028   1.000
    C146    C    0.19133   0.30935   0.12414   1.000
    C147    C    0.03134   0.72338   0.50277   1.000
    C148    C    0.07222   0.68240   0.56729   1.000
    C149    C    0.03330   0.71215   0.63900   1.000
    C150    C    0.07888   0.67320   0.70376   1.000
    C151    C    0.06960   0.58421   0.69824   1.000
    C152    C    0.10884   0.55494   0.62696   1.000
    C153    C    0.20487   0.57675   0.62468   1.000
    C154    C    0.21514   0.66528   0.63010   1.000
    C155    C    0.16851   0.70433   0.56532   1.000
    C156    C    0.06309   0.59355   0.56180   1.000
    C157    C    0.17530   0.69482   0.70193   1.000
    C158    C    0.04034   0.70031   0.77581   1.000
    C159    C    0.10155   0.46641   0.62050   1.000
    C160    C    0.30865   0.69070   0.62425   1.000
    C161    C    0.46867   0.22337   0.50276   1.000
    C162    C    0.42779   0.18238   0.56720   1.000
    C163    C    0.46674   0.21210   0.63919   1.000
    C164    C    0.42109   0.17319   0.70375   1.000
    C165    C    0.43028   0.08419   0.69825   1.000
    C166    C    0.39107   0.05494   0.62695   1.000
    C167    C    0.29506   0.07677   0.62463   1.000
    C168    C    0.28484   0.16531   0.63005   1.000
    C169    C    0.33151   0.20435   0.56520   1.000
    C170    C    0.43688   0.09353   0.56180   1.000
    C171    C    0.32469   0.19486   0.70188   1.000
    C172    C    0.45963   0.20031   0.77580   1.000
    C173    C    0.39835   0.96638   0.62054   1.000
    C174    C    0.19134   0.19074   0.62421   1.000
    C175    C    0.03137   0.77667   0.00000   1.000
    C176    C    0.07225   0.81767   0.06714   1.000
    C177    C    0.03324   0.78793   0.13908   1.000
    C178    C    0.07881   0.82684   0.20360   1.000
    C179    C    0.06953   0.91581   0.19790   1.000
    C180    C    0.10886   0.94512   0.12661   1.000
    C181    C    0.20489   0.92331   0.12441   1.000
    C182    C    0.21513   0.83476   0.12997   1.000
    C183    C    0.16853   0.79572   0.06524   1.000
    C184    C    0.06318   0.90655   0.06146   1.000
    C185    C    0.17523   0.80522   0.20184   1.000
    C186    C    0.04027   0.79974   0.27571   1.000
    C187    C    0.10165   0.03372   0.12029   1.000
    C188    C    0.30864   0.80932   0.12421   1.000
    C189    C    0.53136   0.72332   0.99731   1.000
    C190    C    0.57223   0.68232   0.93286   1.000
    C191    C    0.53330   0.71208   0.86090   1.000
    C192    C    0.71513   0.66522   0.87010   1.000
    C193    C    0.66852   0.70425   0.93482   1.000
    C194    C    0.56312   0.59344   0.93852   1.000
    C195    C    0.67530   0.69477   0.79821   1.000
    C196    C    0.54033   0.70028   0.72428   1.000
    C197    C    0.60160   0.46628   0.87969   1.000
    C198    C    0.80865   0.69064   0.87583   1.000
    C199    C    0.96863   0.27661   0.49720   1.000
    C200    C    0.92776   0.31759   0.43268   1.000
    C201    C    0.96668   0.28784   0.36078   1.000
    C202    C    0.92110   0.32679   0.29621   1.000
    C203    C    0.93038   0.41578   0.30173   1.000
    C204    C    0.89114   0.44504   0.37302   1.000
    C205    C    0.79511   0.42324   0.37529   1.000
    C206    C    0.78484   0.33470   0.36988   1.000
    C207    C    0.83147   0.29565   0.43466   1.000
    C208    C    0.93689   0.40643   0.43817   1.000
    C209    C    0.82468   0.30517   0.29804   1.000
    C210    C    0.95963   0.29967   0.22417   1.000
    C211    C    0.89843   0.53358   0.37943   1.000
    C212    C    0.69133   0.30929   0.37572   1.000
    O213    O    0.51876   0.81344   0.55595   1.000
    O214    O    0.51498   0.70341   0.49085   1.000
    O215    O    0.49584   0.73842   0.22207   1.000
    O216    O    0.55567   0.84362   0.16861   1.000
    O217    O    0.56585   0.06984   0.32480   1.000
    O218    O    0.62917   0.06888   0.43393   1.000
    O219    O    0.86336   0.86021   0.39684   1.000
    O220    O    0.82561   0.73874   0.36229   1.000
    O221    O    0.98114   0.18649   0.05609   1.000
    O222    O    0.98496   0.29653   0.99082   1.000
    O223    O    0.00422   0.26150   0.72208   1.000
    O224    O    0.94432   0.15638   0.66874   1.000
    O225    O    0.93400   0.93022   0.82501   1.000
    O226    O    0.87078   0.93078   0.93412   1.000
    O227    O    0.63658   0.13971   0.89688   1.000
    O228    O    0.67438   0.26119   0.86222   1.000
    O229    O    0.48115   0.31350   0.94387   1.000
    O230    O    0.48497   0.20346   0.00000   1.000
    O231    O    0.50411   0.23843   0.27780   1.000
    O232    O    0.44432   0.34360   0.33122   1.000
    O233    O    0.43402   0.56974   0.17496   1.000
    O234    O    0.37080   0.56919   0.06580   1.000
    O235    O    0.13657   0.36031   0.10307   1.000
    O236    O    0.17436   0.23883   0.13770   1.000
    O237    O    0.01879   0.68655   0.44403   1.000
    O238    O    0.01501   0.79658   0.50913   1.000
    O239    O    0.99583   0.76157   0.77790   1.000
    O240    O    0.05567   0.65637   0.83137   1.000
    O241    O    0.06580   0.43016   0.67510   1.000
    O242    O    0.12912   0.43116   0.56604   1.000
    O243    O    0.36336   0.63975   0.60310   1.000
    O244    O    0.32564   0.76120   0.63773   1.000
    O245    O    0.37080   0.93111   0.56604   1.000
    O246    O    0.13662   0.13978   0.60313   1.000
    O247    O    0.17437   0.26125   0.63760   1.000
    O248    O    0.01883   0.81350   0.94388   1.000
    O249    O    0.01501   0.70345   0.00000   1.000
    O250    O    0.99575   0.73849   0.27789   1.000
    O251    O    0.05566   0.84361   0.33124   1.000
    O252    O    0.06598   0.06976   0.17496   1.000
    O253    O    0.12920   0.06920   0.06586   1.000
    O254    O    0.36340   0.86028   0.10310   1.000
    O255    O    0.32559   0.73880   0.13776   1.000
    O256    O    0.51883   0.68649   0.05610   1.000
    O257    O    0.51501   0.79653   0.99083   1.000
    O258    O    0.49587   0.76156   0.72209   1.000
    O259    O    0.55565   0.65638   0.66875   1.000
    O260    O    0.56595   0.43025   0.82500   1.000
    O261    O    0.62918   0.43079   0.93412   1.000
    O262    O    0.86340   0.63968   0.89690   1.000
    O263    O    0.82561   0.76116   0.86227   1.000
    O264    O    0.98118   0.31344   0.55590   1.000
    O265    O    0.98497   0.20340   0.49085   1.000
    O266    O    0.00414   0.23842   0.22207   1.000
    O267    O    0.94431   0.34361   0.16860   1.000
    O268    O    0.93418   0.56983   0.32487   1.000
    O269    O    0.87086   0.56883   0.43393   1.000
    O270    O    0.63662   0.36024   0.39683   1.000
    O271    O    0.67433   0.23878   0.36224   1.000
loop_
    _geom_bond_atom_site_label_1
    _geom_bond_atom_site_label_2
    _geom_bond_distance
    _geom_bond_site_symmetry_2
    _ccdc_geom_bond_type
    C133   O230      1.28686      .   S
    C133   C134      1.56014      .   S
    C133   O229      1.22755  1_554   S
    O249   C175      1.28688      .   S
    C175   C176      1.56041      .   S
    C175   O248      1.22743  1_554   S
    H32    C142      1.09676      .   S
    H68    C184      1.09756      .   S
    H31    C141      1.10128      .   S
    H67    C183      1.10116      .   S
    O221   C114      1.26919  1_554   S
    O256   C189      1.26900  1_554   S
    H69    C184      1.10048  1_655   S
    H33    C142      1.10045      .   S
    C142   C134      1.54127      .   S
    C142   C138      1.54663      .   S
    C184   C176      1.54117      .   S
    C184   C180      1.54579      .   S
    C141   C134      1.55062      .   S
    C141   H30       1.09888      .   S
    C141   C140      1.54887      .   S
    C183   C176      1.55057      .   S
    C183   H66       1.09888      .   S
    C183   C182      1.55003      .   S
    O234   C145      1.25041      .   S
    O253   C187      1.24946      .   S
    C134   C135      1.54428      .   S
    C176   C177      1.54441      .   S
    H29    C139      1.09750      .   S
    H65    C181      1.09753      .   S
    O235   C146      1.28522      .   S
    O254   C188      1.28522      .   S
    C145   C138      1.53453      .   S
    C145   O233      1.30736      .   S
    C187   C180      1.53488  1_545   S
    C187   O252      1.30741      .   S
    C146   C140      1.52793      .   S
    C146   O236      1.26804      .   S
    C188   C182      1.52817      .   S
    C188   O255      1.26805      .   S
    C139   C138      1.54637      .   S
    C139   C140      1.53702      .   S
    C139   H28       1.10073      .   S
    C181   C180      1.54637      .   S
    C181   C182      1.53715      .   S
    C181   H64       1.10080      .   S
    C138   C137      1.53381      .   S
    C180   C179      1.53375      .   S
    C140   C143      1.54903      .   S
    C182   C185      1.54776      .   S
    C135   H24       1.10049      .   S
    C135   H25       1.09654      .   S
    C135   C136      1.53858      .   S
    C177   H60       1.10066  1_455   S
    C177   H61       1.09653      .   S
    C177   C178      1.53854      .   S
    O267   C210      1.29419      .   S
    O216   C111      1.29402      .   S
    C137   H27       1.09994      .   S
    C137   C136      1.54309      .   S
    C137   H26       1.09615      .   S
    C179   H63       1.09996      .   S
    C179   C178      1.54306      .   S
    C179   H62       1.09612      .   S
    C143   C136      1.55115      .   S
    C143   H35       1.09878      .   S
    C143   H34       1.10048      .   S
    C185   C178      1.55123      .   S
    C185   H71       1.09880      .   S
    C185   H70       1.10044      .   S
    C136   C144      1.53010      .   S
    C178   C186      1.52986      .   S
    O215   C111      1.26416      .   S
    O266   C210      1.26426  1_455   S
    C210   C202      1.52952      .   S
    C111   C103      1.52965      .   S
    H98    C209      1.10053      .   S
    H10    C110      1.10059      .   S
    H90    C203      1.10041      .   S
    H2     C104      1.09615      .   S
    C144   O231      1.26408      .   S
    C144   O232      1.29416      .   S
    C186   O250      1.26417  1_455   S
    C186   O251      1.29421      .   S
    H99    C209      1.09880      .   S
    H11    C110      1.09880      .   S
    C202   C209      1.55127      .   S
    C202   C203      1.54340      .   S
    C202   C201      1.53872      .   S
    C103   C110      1.55126      .   S
    C103   C104      1.54337      .   S
    C103   C102      1.53869      .   S
    C209   C206      1.54772      .   S
    C110   C107      1.54775      .   S
    H3     C104      1.09992      .   S
    H91    C203      1.09995      .   S
    C104   C105      1.53380      .   S
    C203   C204      1.53380      .   S
    O217   C112      1.30816      .   S
    O268   C211      1.30721      .   S
    H92    C205      1.10081      .   S
    H4     C106      1.10089      .   S
    H1     C102      1.09653      .   S
    H89    C201      1.09655      .   S
    H0     C102      1.10052      .   S
    H88    C201      1.10066  1_455   S
    C201   C200      1.54421      .   S
    C102   C101      1.54425      .   S
    O271   C212      1.26804      .   S
    O220   C113      1.26804      .   S
    C206   C205      1.53698      .   S
    C206   C212      1.52803      .   S
    C206   C207      1.55007      .   S
    C107   C106      1.53706      .   S
    C107   C113      1.52804      .   S
    C107   C108      1.54993      .   S
    C204   C205      1.54623      .   S
    C204   C211      1.53415      .   S
    C204   C208      1.54569      .   S
    C105   C106      1.54618      .   S
    C105   C112      1.53459  1_565   S
    C105   C109      1.54579      .   S
    C205   H93       1.09740      .   S
    C106   H5        1.09738      .   S
    C212   O270      1.28528      .   S
    C113   O219      1.28529      .   S
    C211   O269      1.24962      .   S
    C112   O218      1.24962      .   S
    H94    C207      1.09889      .   S
    H6     C108      1.09888      .   S
    C200   C207      1.55058      .   S
    C200   C208      1.54074      .   S
    C200   C199      1.52129      .   S
    C101   C108      1.55063      .   S
    C101   C109      1.54074      .   S
    C101   C100      1.52134      .   S
    C207   H95       1.10112      .   S
    C108   H7        1.10111      .   S
    C109   H9        1.10051      .   S
    C109   H8        1.09752      .   S
    C208   H97       1.02330  1_655   S
    C208   H96       1.09748      .   S
    O116   C161      1.26919      .   S
    O237   C147      1.26925      .   S
    O214   C100      1.29224      .   S
    O265   C199      1.29220      .   S
    C199   O264      1.26863      .   S
    C100   O213      1.26919      .   S
    C161   O117      1.29223      .   S
    C161   C162      1.52019      .   S
    C147   O238      1.29222      .   S
    C147   C148      1.52129      .   S
    H44    C156      1.09749      .   S
    H56    C170      1.09736      .   S
    H55    C169      1.09983      .   S
    H43    C155      1.10127      .   S
    H45    C156      1.10050  1_655   S
    H57    C170      1.10050      .   S
    C170   C162      1.54065      .   S
    C170   C166      1.54592      .   S
    C156   C148      1.54074      .   S
    C156   C152      1.54582      .   S
    C169   C162      1.55062      .   S
    C169   H54       1.09897      .   S
    C169   C168      1.55119      .   S
    C155   C148      1.55058      .   S
    C155   H42       1.09888      .   S
    C155   C154      1.55008      .   S
    O242   C159      1.24903      .   S
    O245   C173      1.24961      .   S
    C162   C163      1.54552      .   S
    C148   C149      1.54120      .   S
    H53    C167      1.09786      .   S
    H41    C153      1.09739      .   S
    O243   C160      1.28550      .   S
    O246   C174      1.28530      .   S
    C159   C152      1.53422      .   S
    C159   O241      1.30777      .   S
    C173   C166      1.53461  1_565   S
    C173   O120      1.30718      .   S
    C174   C168      1.52804      .   S
    C174   O247      1.26775      .   S
    C160   C154      1.52805      .   S
    C160   O244      1.26802      .   S
    C167   C166      1.54617      .   S
    C167   C168      1.53704      .   S
    C167   H52       1.10074      .   S
    C153   C152      1.54623      .   S
    C153   C154      1.53699      .   S
    C153   H40       1.10081      .   S
    C166   C165      1.53364      .   S
    C152   C151      1.53363      .   S
    C168   C171      1.54761      .   S
    C154   C157      1.54756      .   S
    C149   H36       1.10075  1_455   S
    C149   H37       1.09667      .   S
    C149   C150      1.54142      .   S
    C163   H48       1.10052      .   S
    C163   H49       1.09654      .   S
    C163   C164      1.53868      .   S
    O224   C130      1.29407      .   S
    O259   C196      1.29430      .   S
    C151   H39       1.09995      .   S
    C151   C150      1.54339      .   S
    C151   H38       1.09625      .   S
    C165   H51       1.09993      .   S
    C165   C164      1.54337      .   S
    C165   H50       1.09628      .   S
    C171   C164      1.55125      .   S
    C171   H59       1.09880      .   S
    C171   H58       1.10058      .   S
    C157   C150      1.55127      .   S
    C157   H47       1.09880      .   S
    C157   H46       1.10052      .   S
    C164   C172      1.52965      .   S
    C150   C158      1.52968      .   S
    O223   C130      1.26417  1_455   S
    O258   C196      1.26413      .   S
    C130   C122      1.52986      .   S
    C196   C84       1.52994      .   S
    H22    C129      1.10060      .   S
    H82    C195      1.10059      .   S
    H14    C123      1.09614      .   S
    H74    C85       1.09602      .   S
    C172   O118      1.26416      .   S
    C172   O119      1.29417      .   S
    C158   O239      1.26424  1_455   S
    C158   O240      1.29405      .   S
    H23    C129      1.09881      .   S
    H83    C195      1.09880      .   S
    C122   C129      1.55124      .   S
    C122   C123      1.54304      .   S
    C122   C121      1.53854      .   S
    C84    C195      1.55116      .   S
    C84    C85       1.54310      .   S
    C84    C191      1.53857      .   S
    C129   C126      1.54761      .   S
    C195   C192      1.54777      .   S
    H75    C85       1.09994      .   S
    H15    C123      1.09996      .   S
    C123   C124      1.53376      .   S
    C85    C86       1.53381      .   S
    O260   C197      1.30750      .   S
    O225   C131      1.30742      .   S
    H16    C125      1.10080      .   S
    H76    C87       1.10087      .   S
    H13    C121      1.09653      .   S
    H73    C191      1.09654      .   S
    H72    C191      1.10051      .   S
    H12    C121      1.10066  1_455   S
    C121   C115      1.54441      .   S
    C191   C190      1.54443      .   S
    O228   C132      1.26802      .   S
    O263   C198      1.26804      .   S
    C126   C125      1.53717      .   S
    C126   C132      1.52817      .   S
    C126   C127      1.55004      .   S
    C192   C87       1.53713      .   S
    C192   C198      1.52802      .   S
    C192   C193      1.55003      .   S
    C124   C125      1.54636      .   S
    C124   C131      1.53490  1_545   S
    C124   C128      1.54565      .   S
    C86    C87       1.54636      .   S
    C86    C197      1.53453      .   S
    C86    C194      1.54591      .   S
    C125   H17       1.09736      .   S
    C87    H77       1.09750      .   S
    C132   O227      1.28527      .   S
    C198   O262      1.28522      .   S
    C131   O226      1.24960      .   S
    C197   O261      1.24966      .   S
    H18    C127      1.09892      .   S
    H78    C193      1.09887      .   S
    C115   C127      1.55057      .   S
    C115   C128      1.54117      .   S
    C115   C114      1.52163      .   S
    C190   C193      1.55062      .   S
    C190   C194      1.54120      .   S
    C190   C189      1.52148      .   S
    C127   H19       1.10116      .   S
    C193   H79       1.10113      .   S
    C128   H21       1.02516  1_655   S
    C128   H20       1.09786      .   S
    C194   H81       1.10046      .   S
    C194   H80       1.09756      .   S
    O222   C114      1.29225      .   S
    O257   C189      1.29226      .   S
