# CIF file generated by openbabel 2.4.90, see http://openbabel.sf.net
data_I
_chemical_name_common ''
_cell_length_a 15.614
_cell_length_b 17.228
_cell_length_c 18.405
_cell_angle_alpha 89.946
_cell_angle_beta 90.001
_cell_angle_gamma 90.006
_space_group_name_H-M_alt 'P 1'
_space_group_name_Hall 'P 1'
loop_
    _symmetry_equiv_pos_as_xyz
    x,y,z
loop_
    _atom_site_label
    _atom_site_type_symbol
    _atom_site_fract_x
    _atom_site_fract_y
    _atom_site_fract_z
    _atom_site_occupancy
    Zr0     Zr   0.43364   0.82351   0.64100   1.000
    Zr1     Zr   0.48113   0.67020   0.58724   1.000
    Zr2     Zr   0.06636   0.17651   0.14100   1.000
    Zr3     Zr   0.01884   0.32978   0.08715   1.000
    Zr4     Zr   0.56637   0.32349   0.85893   1.000
    Zr5     Zr   0.51885   0.17021   0.91282   1.000
    Zr6     Zr   0.93363   0.67646   0.35899   1.000
    Zr7     Zr   0.98113   0.82978   0.41274   1.000
    Zr8     Zr   0.56633   0.17648   0.35897   1.000
    Zr9     Zr   0.51884   0.32979   0.41273   1.000
    Zr10    Zr   0.93361   0.82348   0.85894   1.000
    Zr11    Zr   0.98113   0.67020   0.91282   1.000
    Zr12    Zr   0.43361   0.67650   0.14104   1.000
    Zr13    Zr   0.48113   0.82977   0.08716   1.000
    Zr14    Zr   0.06635   0.32352   0.64098   1.000
    Zr15    Zr   0.01885   0.17020   0.58723   1.000
    N16     N    0.61971   0.85542   0.36855   1.000
    O17     O    0.54796   0.83695   0.48351   1.000
    O18     O    0.55889   0.77111   0.45380   1.000
    O19     O    0.54222   0.78144   0.27505   1.000
    O20     O    0.56906   0.84606   0.24822   1.000
    O21     O    0.59290   0.98929   0.35522   1.000
    O22     O    0.77098   0.85021   0.38667   1.000
    O23     O    0.74967   0.78151   0.36460   1.000
    N24     N    0.88012   0.14450   0.86871   1.000
    O25     O    0.95194   0.16300   0.98363   1.000
    O26     O    0.94101   0.22883   0.95385   1.000
    O27     O    0.95770   0.21851   0.77512   1.000
    O28     O    0.93085   0.15390   0.74835   1.000
    O29     O    0.90696   0.01068   0.85534   1.000
    O30     O    0.72892   0.14973   0.88678   1.000
    O31     O    0.75025   0.21842   0.86464   1.000
    N32     N    0.61972   0.64450   0.86875   1.000
    O33     O    0.54797   0.66300   0.98366   1.000
    O34     O    0.55890   0.72883   0.95387   1.000
    O35     O    0.54224   0.71852   0.77515   1.000
    O36     O    0.56906   0.65390   0.74837   1.000
    O37     O    0.59294   0.51068   0.85536   1.000
    O38     O    0.77100   0.64972   0.88680   1.000
    O39     O    0.74967   0.71841   0.86468   1.000
    N40     N    0.11971   0.85549   0.13091   1.000
    O41     O    0.04797   0.83699   0.01616   1.000
    O42     O    0.05889   0.77116   0.04366   1.000
    O43     O    0.04220   0.78148   0.22468   1.000
    O44     O    0.06905   0.84609   0.25145   1.000
    O45     O    0.09294   0.98931   0.14445   1.000
    O46     O    0.27099   0.85026   0.11302   1.000
    O47     O    0.24965   0.78157   0.13516   1.000
    N48     N    0.38025   0.35549   0.13087   1.000
    O49     O    0.45774   0.28147   0.22463   1.000
    O50     O    0.43092   0.34609   0.25142   1.000
    O51     O    0.40704   0.48930   0.14444   1.000
    O52     O    0.22898   0.35027   0.11299   1.000
    O53     O    0.25031   0.28158   0.13511   1.000
    O54     O    0.45201   0.33699   0.01614   1.000
    O55     O    0.44108   0.27116   0.04364   1.000
    N56     N    0.88012   0.35542   0.36853   1.000
    O57     O    0.95194   0.33695   0.48348   1.000
    O58     O    0.94101   0.27111   0.45378   1.000
    O59     O    0.95769   0.28144   0.27503   1.000
    O60     O    0.93085   0.34606   0.24820   1.000
    O61     O    0.90701   0.48928   0.35523   1.000
    O62     O    0.72892   0.35022   0.38665   1.000
    O63     O    0.75023   0.28152   0.36457   1.000
    N64     N    0.11971   0.64457   0.63142   1.000
    O65     O    0.04796   0.66304   0.51647   1.000
    O66     O    0.05889   0.72888   0.54618   1.000
    O67     O    0.04222   0.71854   0.72492   1.000
    O68     O    0.06906   0.65393   0.75176   1.000
    O69     O    0.09289   0.51070   0.64473   1.000
    O70     O    0.27098   0.64977   0.61330   1.000
    O71     O    0.24968   0.71846   0.63539   1.000
    N72     N    0.38026   0.14457   0.63141   1.000
    O73     O    0.40707   0.01070   0.64473   1.000
    O74     O    0.22900   0.14978   0.61329   1.000
    O75     O    0.25031   0.21848   0.63535   1.000
    O76     O    0.45202   0.16304   0.51645   1.000
    O77     O    0.44109   0.22888   0.54617   1.000
    O78     O    0.45776   0.21855   0.72491   1.000
    O79     O    0.43092   0.15393   0.75175   1.000
loop_
    _geom_bond_atom_site_label_1
    _geom_bond_atom_site_label_2
    _geom_bond_distance
    _geom_bond_site_symmetry_2
    _ccdc_geom_bond_type
    N16    O17       2.41498      .   S
    Zr0    O17       3.41171      .   S
    N16    O18       2.33856      .   S
    Zr1    O18       3.24343      .   S
    N16    O19       2.46039      .   S
    Zr12   O19       3.49798      .   S
    N16    O20       2.35739      .   S
    Zr13   O20       3.27901      .   S
    N16    O21       2.35659      .   S
    Zr8    O21       3.25228  1_545   S
    N16    O22       2.38696      .   S
    Zr7    O22       3.33476      .   S
    N16    O23       2.39680      .   S
    Zr6    O23       3.39677      .   S
    N24    O25       2.41532      .   S
    Zr2    O25       3.41131  1_454   S
    N24    O26       2.33967      .   S
    Zr3    O26       3.24481  1_454   S
    N24    O27       2.46082      .   S
    Zr14   O27       3.49816  1_455   S
    N24    O28       2.35803      .   S
    Zr15   O28       3.28001  1_455   S
    N24    O29       2.35646      .   S
    Zr10   O29       3.25244  1_565   S
    N24    O30       2.38592      .   S
    Zr5    O30       3.33368      .   S
    N24    O31       2.39579      .   S
    Zr4    O31       3.39583      .   S
    N32    O33       2.41477      .   S
    Zr12   O33       3.41094  1_554   S
    N32    O34       2.33916      .   S
    Zr13   O34       3.24432  1_554   S
    N32    O35       2.46039      .   S
    Zr0    O35       3.49782      .   S
    N32    O36       2.35792      .   S
    Zr1    O36       3.27975      .   S
    N32    O37       2.35613      .   S
    Zr4    O37       3.25216      .   S
    N32    O38       2.38693      .   S
    Zr11   O38       3.33458      .   S
    N32    O39       2.39642      .   S
    Zr10   O39       3.39633      .   S
    N40    O41       2.41208      .   S
    Zr10   O41       3.40832  1_656   S
    N40    O42       2.36546      .   S
    Zr11   O42       3.21023  1_656   S
    N40    O43       2.46251      .   S
    Zr6    O43       3.49987  1_655   S
    N40    O44       2.36071      .   S
    Zr7    O44       3.28239  1_655   S
    N40    O45       2.35657      .   S
    Zr2    O45       3.25223  1_545   S
    N40    O46       2.38661      .   S
    Zr13   O46       3.33435      .   S
    N40    O47       2.39687      .   S
    Zr12   O47       3.39692      .   S
    N48    O49       2.46240      .   S
    Zr8    O49       3.50037      .   S
    N48    O50       2.36096      .   S
    Zr9    O50       3.28268      .   S
    N48    O51       2.35646      .   S
    Zr12   O51       3.25208      .   S
    N48    O52       2.38650      .   S
    Zr3    O52       3.33412      .   S
    N48    O53       2.39652      .   S
    Zr2    O53       3.39644      .   S
    N48    O54       2.41193      .   S
    Zr4    O54       3.40818  1_556   S
    N48    O55       2.36533      .   S
    Zr5    O55       3.21009  1_556   S
    N56    O57       2.41539      .   S
    Zr14   O57       3.41256  1_455   S
    N56    O58       2.33920      .   S
    Zr15   O58       3.24403  1_455   S
    N56    O59       2.46105      .   S
    Zr2    O59       3.49885  1_455   S
    N56    O60       2.35766      .   S
    Zr3    O60       3.27937  1_455   S
    N56    O61       2.35658      .   S
    Zr6    O61       3.25220      .   S
    N56    O62       2.38589      .   S
    Zr9    O62       3.33370      .   S
    N56    O63       2.39562      .   S
    Zr8    O63       3.39553      .   S
    N64    O65       2.41486      .   S
    Zr6    O65       3.41166  1_655   S
    N64    O66       2.33858      .   S
    Zr7    O66       3.24350  1_655   S
    N64    O67       2.46050      .   S
    Zr10   O67       3.49812  1_655   S
    N64    O68       2.35743      .   S
    Zr11   O68       3.27904  1_655   S
    N64    O69       2.35638      .   S
    Zr14   O69       3.25203      .   S
    N64    O70       2.38705      .   S
    Zr1    O70       3.33480      .   S
    N64    O71       2.39662      .   S
    Zr0    O71       3.39652      .   S
    N72    O73       2.35657      .   S
    Zr0    O73       3.25228  1_565   S
    N72    O74       2.38695      .   S
    Zr15   O74       3.33475      .   S
    N72    O75       2.39678      .   S
    Zr14   O75       3.39678      .   S
    N72    O76       2.41491      .   S
    Zr8    O76       3.41165      .   S
    N72    O77       2.33851      .   S
    Zr9    O77       3.24337      .   S
    N72    O78       2.46044      .   S
    Zr4    O78       3.49803      .   S
    N72    O79       2.35755      .   S
    Zr5    O79       3.27916      .   S
