# CIF file generated by openbabel 2.4.90, see http://openbabel.sf.net
data_I
_chemical_name_common ''
_cell_length_a 15.614
_cell_length_b 17.228
_cell_length_c 18.405
_cell_angle_alpha 89.946
_cell_angle_beta 90.001
_cell_angle_gamma 90.006
_space_group_name_H-M_alt 'P 1'
_space_group_name_Hall 'P 1'
loop_
    _symmetry_equiv_pos_as_xyz
    x,y,z
loop_
    _atom_site_label
    _atom_site_type_symbol
    _atom_site_fract_x
    _atom_site_fract_y
    _atom_site_fract_z
    _atom_site_occupancy
    C0      C    0.43364   0.82351   0.64100   1.000
    C1      C    0.48113   0.67020   0.58724   1.000
    C2      C    0.06636   0.17651   0.14100   1.000
    C3      C    0.01884   0.32978   0.08715   1.000
    C4      C    0.56637   0.32349   0.85893   1.000
    C5      C    0.51885   0.17021   0.91282   1.000
    C6      C    0.93363   0.67646   0.35899   1.000
    C7      C    0.98113   0.82978   0.41274   1.000
    C8      C    0.56633   0.17648   0.35897   1.000
    C9      C    0.51884   0.32979   0.41273   1.000
    C10     C    0.93361   0.82348   0.85894   1.000
    C11     C    0.98113   0.67020   0.91282   1.000
    C12     C    0.43361   0.67650   0.14104   1.000
    C13     C    0.48113   0.82977   0.08716   1.000
    C14     C    0.06635   0.32352   0.64098   1.000
    C15     C    0.01885   0.17020   0.58723   1.000
    C16     C    0.46445   0.80169   0.35914   1.000
    C17     C    0.53908   0.72457   0.35739   1.000
    C18     C    0.60128   0.94361   0.25531   1.000
    C19     C    0.50167   0.93213   0.29904   1.000
    C20     C    0.73896   0.95146   0.33011   1.000
    C21     C    0.73325   0.94497   0.42595   1.000
    C22     C    0.67604   0.73233   0.43143   1.000
    C23     C    0.69694   0.81559   0.48612   1.000
    C24     C    0.59111   0.92756   0.48915   1.000
    C25     C    0.49487   0.92249   0.43897   1.000
    C26     C    0.70817   0.83202   0.25155   1.000
    C27     C    0.68343   0.74193   0.29406   1.000
    C28     C    0.03554   0.19829   0.85933   1.000
    C29     C    0.96086   0.27538   0.85742   1.000
    C30     C    0.89905   0.05631   0.75565   1.000
    C31     C    0.99850   0.06793   0.79958   1.000
    C32     C    0.76107   0.04844   0.83036   1.000
    C33     C    0.76670   0.05490   0.92618   1.000
    C34     C    0.82385   0.26758   0.93130   1.000
    C35     C    0.80292   0.18432   0.98618   1.000
    C36     C    0.90861   0.07238   0.98949   1.000
    C37     C    0.00000   0.07738   0.93949   1.000
    C38     C    0.79192   0.16785   0.75163   1.000
    C39     C    0.81658   0.25797   0.79398   1.000
    C40     C    0.53548   0.30165   0.14066   1.000
    C41     C    0.46075   0.22459   0.14253   1.000
    C42     C    0.39894   0.44365   0.24430   1.000
    C43     C    0.49844   0.43206   0.20045   1.000
    C44     C    0.26104   0.45159   0.16945   1.000
    C45     C    0.26680   0.44506   0.07364   1.000
    C46     C    0.32382   0.23243   0.06852   1.000
    C47     C    0.30296   0.31572   0.01370   1.000
    C48     C    0.40876   0.42763   0.01046   1.000
    C49     C    0.50508   0.42258   0.06055   1.000
    C50     C    0.29182   0.33215   0.24825   1.000
    C51     C    0.31647   0.24203   0.20590   1.000
    C52     C    0.96448   0.69842   0.64082   1.000
    C53     C    0.03923   0.77546   0.64250   1.000
    C54     C    0.10110   0.55637   0.74468   1.000
    C55     C    0.00155   0.56793   0.70086   1.000
    C56     C    0.23886   0.54850   0.66994   1.000
    C57     C    0.23323   0.55496   0.57410   1.000
    C58     C    0.17614   0.76764   0.56858   1.000
    C59     C    0.19700   0.68437   0.51389   1.000
    C60     C    0.09112   0.57245   0.51083   1.000
    C61     C    0.99486   0.57754   0.56098   1.000
    C62     C    0.20815   0.66787   0.74846   1.000
    C63     C    0.18350   0.75801   0.70599   1.000
    C64     C    0.53553   0.19830   0.64083   1.000
    C65     C    0.46089   0.27542   0.64258   1.000
    C66     C    0.39870   0.05638   0.74467   1.000
    C67     C    0.49831   0.06786   0.70093   1.000
    C68     C    0.26102   0.04853   0.66986   1.000
    C69     C    0.26672   0.05502   0.57400   1.000
    C70     C    0.32393   0.26766   0.56854   1.000
    C71     C    0.30304   0.18440   0.51385   1.000
    C72     C    0.40886   0.07243   0.51083   1.000
    C73     C    0.50510   0.07750   0.56101   1.000
    C74     C    0.29180   0.16797   0.74842   1.000
    C75     C    0.31654   0.25806   0.70591   1.000
    C76     C    0.96444   0.80170   0.14064   1.000
    C77     C    0.03912   0.72461   0.14255   1.000
    C78     C    0.10092   0.94368   0.24432   1.000
    C79     C    0.00147   0.93205   0.20039   1.000
    C80     C    0.23890   0.95155   0.16962   1.000
    C81     C    0.23328   0.94508   0.07379   1.000
    C82     C    0.17612   0.73241   0.06863   1.000
    C83     C    0.19705   0.81567   0.01379   1.000
    C84     C    0.09136   0.92761   0.01049   1.000
    C85     C    0.99498   0.92261   0.06040   1.000
    C86     C    0.20806   0.83214   0.24834   1.000
    C87     C    0.18340   0.74202   0.20599   1.000
    C88     C    0.46449   0.69833   0.85931   1.000
    C89     C    0.53922   0.77540   0.85744   1.000
    C90     C    0.60104   0.55634   0.75568   1.000
    C91     C    0.50154   0.56793   0.79952   1.000
    C92     C    0.73894   0.54840   0.83052   1.000
    C93     C    0.73318   0.55493   0.92634   1.000
    C94     C    0.67616   0.76756   0.93145   1.000
    C95     C    0.69701   0.68428   0.98627   1.000
    C96     C    0.59122   0.57236   0.98951   1.000
    C97     C    0.49490   0.57740   0.93943   1.000
    C98     C    0.70816   0.66785   0.75172   1.000
    C99     C    0.68351   0.75796   0.79407   1.000
    C100    C    0.03550   0.30157   0.35915   1.000
    C101    C    0.96074   0.22452   0.35739   1.000
    C102    C    0.89888   0.44362   0.25500   1.000
    C103    C    0.99843   0.43206   0.29911   1.000
    C104    C    0.76112   0.45149   0.33003   1.000
    C105    C    0.76675   0.44502   0.42587   1.000
    C106    C    0.82384   0.23234   0.43139   1.000
    C107    C    0.80297   0.31561   0.48608   1.000
    C108    C    0.90886   0.42754   0.48914   1.000
    C109    C    0.00000   0.42244   0.43899   1.000
    C110    C    0.79183   0.33211   0.25151   1.000
    C111    C    0.81647   0.24198   0.29398   1.000
    C112    C    0.53131   0.77662   0.49721   1.000
    C113    C    0.57218   0.81761   0.43269   1.000
    C114    C    0.53324   0.78789   0.36078   1.000
    C115    C    0.57888   0.82680   0.29622   1.000
    C116    C    0.56969   0.91580   0.30172   1.000
    C117    C    0.60891   0.94505   0.37303   1.000
    C118    C    0.70491   0.92321   0.37535   1.000
    C119    C    0.71513   0.83467   0.36993   1.000
    C120    C    0.66846   0.79564   0.43469   1.000
    C121    C    0.56309   0.90646   0.43817   1.000
    C122    C    0.67529   0.80513   0.29809   1.000
    C123    C    0.54035   0.79968   0.22417   1.000
    C124    C    0.60162   0.03361   0.37943   1.000
    C125    C    0.80863   0.80924   0.37576   1.000
    C126    C    0.96860   0.22332   0.99729   1.000
    C127    C    0.92773   0.18232   0.93283   1.000
    C128    C    0.96673   0.21206   0.86089   1.000
    C129    C    0.92116   0.17315   0.79637   1.000
    C130    C    0.93044   0.08418   0.80207   1.000
    C131    C    0.89111   0.05487   0.87336   1.000
    C132    C    0.79509   0.07668   0.87557   1.000
    C133    C    0.78485   0.16523   0.87000   1.000
    C134    C    0.83145   0.20427   0.93473   1.000
    C135    C    0.93679   0.09344   0.93850   1.000
    C136    C    0.82474   0.19477   0.79814   1.000
    C137    C    0.95971   0.20025   0.72426   1.000
    C138    C    0.89833   0.96626   0.87968   1.000
    C139    C    0.69134   0.19066   0.87576   1.000
    C140    C    0.46861   0.27667   0.00000   1.000
    C141    C    0.42775   0.31767   0.06712   1.000
    C142    C    0.46668   0.28791   0.13907   1.000
    C143    C    0.42110   0.32682   0.20358   1.000
    C144    C    0.43039   0.41580   0.19790   1.000
    C145    C    0.39114   0.44512   0.12658   1.000
    C146    C    0.29511   0.42332   0.12430   1.000
    C147    C    0.28484   0.33477   0.12980   1.000
    C148    C    0.33146   0.29574   0.06516   1.000
    C149    C    0.43687   0.40655   0.06140   1.000
    C150    C    0.32468   0.30522   0.20177   1.000
    C151    C    0.45965   0.29971   0.27570   1.000
    C152    C    0.39838   0.53370   0.12028   1.000
    C153    C    0.19133   0.30935   0.12414   1.000
    C154    C    0.03134   0.72338   0.50277   1.000
    C155    C    0.07222   0.68240   0.56729   1.000
    C156    C    0.03330   0.71215   0.63900   1.000
    C157    C    0.07888   0.67320   0.70376   1.000
    C158    C    0.06960   0.58421   0.69824   1.000
    C159    C    0.10884   0.55494   0.62696   1.000
    C160    C    0.20487   0.57675   0.62468   1.000
    C161    C    0.21514   0.66528   0.63010   1.000
    C162    C    0.16851   0.70433   0.56532   1.000
    C163    C    0.06309   0.59355   0.56180   1.000
    C164    C    0.17530   0.69482   0.70193   1.000
    C165    C    0.04034   0.70031   0.77581   1.000
    C166    C    0.10155   0.46641   0.62050   1.000
    C167    C    0.30865   0.69070   0.62425   1.000
    C168    C    0.46867   0.22337   0.50276   1.000
    C169    C    0.42779   0.18238   0.56720   1.000
    C170    C    0.46674   0.21210   0.63919   1.000
    C171    C    0.42109   0.17319   0.70375   1.000
    C172    C    0.43028   0.08419   0.69825   1.000
    C173    C    0.39107   0.05494   0.62695   1.000
    C174    C    0.29506   0.07677   0.62463   1.000
    C175    C    0.28484   0.16531   0.63005   1.000
    C176    C    0.33151   0.20435   0.56520   1.000
    C177    C    0.43688   0.09353   0.56180   1.000
    C178    C    0.32469   0.19486   0.70188   1.000
    C179    C    0.45963   0.20031   0.77580   1.000
    C180    C    0.39835   0.96638   0.62054   1.000
    C181    C    0.19134   0.19074   0.62421   1.000
    C182    C    0.03137   0.77667   0.00000   1.000
    C183    C    0.07225   0.81767   0.06714   1.000
    C184    C    0.03324   0.78793   0.13908   1.000
    C185    C    0.07881   0.82684   0.20360   1.000
    C186    C    0.06953   0.91581   0.19790   1.000
    C187    C    0.10886   0.94512   0.12661   1.000
    C188    C    0.20489   0.92331   0.12441   1.000
    C189    C    0.21513   0.83476   0.12997   1.000
    C190    C    0.16853   0.79572   0.06524   1.000
    C191    C    0.06318   0.90655   0.06146   1.000
    C192    C    0.17523   0.80522   0.20184   1.000
    C193    C    0.04027   0.79974   0.27571   1.000
    C194    C    0.10165   0.03372   0.12029   1.000
    C195    C    0.30864   0.80932   0.12421   1.000
    C196    C    0.53136   0.72332   0.99731   1.000
    C197    C    0.57223   0.68232   0.93286   1.000
    C198    C    0.53330   0.71208   0.86090   1.000
    C199    C    0.57888   0.67317   0.79639   1.000
    C200    C    0.56959   0.58419   0.80207   1.000
    C201    C    0.60884   0.55487   0.87339   1.000
    C202    C    0.70487   0.57667   0.87568   1.000
    C203    C    0.71513   0.66522   0.87010   1.000
    C204    C    0.66852   0.70425   0.93482   1.000
    C205    C    0.56312   0.59344   0.93852   1.000
    C206    C    0.67530   0.69477   0.79821   1.000
    C207    C    0.54033   0.70028   0.72428   1.000
    C208    C    0.60160   0.46628   0.87969   1.000
    C209    C    0.80865   0.69064   0.87583   1.000
    C210    C    0.96863   0.27661   0.49720   1.000
    C211    C    0.92776   0.31759   0.43268   1.000
    C212    C    0.96668   0.28784   0.36078   1.000
    C213    C    0.92110   0.32679   0.29621   1.000
    C214    C    0.93038   0.41578   0.30173   1.000
    C215    C    0.89114   0.44504   0.37302   1.000
    C216    C    0.79511   0.42324   0.37529   1.000
    C217    C    0.78484   0.33470   0.36988   1.000
    C218    C    0.83147   0.29565   0.43466   1.000
    C219    C    0.93689   0.40643   0.43817   1.000
    C220    C    0.82468   0.30517   0.29804   1.000
    C221    C    0.95963   0.29967   0.22417   1.000
    C222    C    0.89843   0.53358   0.37943   1.000
    C223    C    0.69133   0.30929   0.37572   1.000
    C224    C    0.51876   0.81344   0.55595   1.000
    C225    C    0.51498   0.70341   0.49085   1.000
    C226    C    0.49584   0.73842   0.22207   1.000
    C227    C    0.55567   0.84362   0.16861   1.000
    C228    C    0.56585   0.06984   0.32480   1.000
    C229    C    0.62917   0.06888   0.43393   1.000
    C230    C    0.86336   0.86021   0.39684   1.000
    C231    C    0.82561   0.73874   0.36229   1.000
    C232    C    0.98114   0.18649   0.05609   1.000
    C233    C    0.98496   0.29653   0.99082   1.000
    C234    C    0.00422   0.26150   0.72208   1.000
    C235    C    0.94432   0.15638   0.66874   1.000
    C236    C    0.93400   0.93022   0.82501   1.000
    C237    C    0.87078   0.93078   0.93412   1.000
    C238    C    0.63658   0.13971   0.89688   1.000
    C239    C    0.67438   0.26119   0.86222   1.000
    C240    C    0.48115   0.31350   0.94387   1.000
    C241    C    0.48497   0.20346   0.00000   1.000
    C242    C    0.50411   0.23843   0.27780   1.000
    C243    C    0.44432   0.34360   0.33122   1.000
    C244    C    0.43402   0.56974   0.17496   1.000
    C245    C    0.37080   0.56919   0.06580   1.000
    C246    C    0.13657   0.36031   0.10307   1.000
    C247    C    0.17436   0.23883   0.13770   1.000
    C248    C    0.01879   0.68655   0.44403   1.000
    C249    C    0.01501   0.79658   0.50913   1.000
    C250    C    0.99583   0.76157   0.77790   1.000
    C251    C    0.05567   0.65637   0.83137   1.000
    C252    C    0.06580   0.43016   0.67510   1.000
    C253    C    0.12912   0.43116   0.56604   1.000
    C254    C    0.36336   0.63975   0.60310   1.000
    C255    C    0.32564   0.76120   0.63773   1.000
    C256    C    0.48121   0.18655   0.44402   1.000
    C257    C    0.48500   0.29658   0.50912   1.000
    C258    C    0.50414   0.26156   0.77790   1.000
    C259    C    0.44431   0.15637   0.83137   1.000
    C260    C    0.43412   0.93015   0.67510   1.000
    C261    C    0.37080   0.93111   0.56604   1.000
    C262    C    0.13662   0.13978   0.60313   1.000
    C263    C    0.17437   0.26125   0.63760   1.000
    C264    C    0.01883   0.81350   0.94388   1.000
    C265    C    0.01501   0.70345   0.00000   1.000
    C266    C    0.99575   0.73849   0.27789   1.000
    C267    C    0.05566   0.84361   0.33124   1.000
    C268    C    0.06598   0.06976   0.17496   1.000
    C269    C    0.12920   0.06920   0.06586   1.000
    C270    C    0.36340   0.86028   0.10310   1.000
    C271    C    0.32559   0.73880   0.13776   1.000
    C272    C    0.51883   0.68649   0.05610   1.000
    C273    C    0.51501   0.79653   0.99083   1.000
    C274    C    0.49587   0.76156   0.72209   1.000
    C275    C    0.55565   0.65638   0.66875   1.000
    C276    C    0.56595   0.43025   0.82500   1.000
    C277    C    0.62918   0.43079   0.93412   1.000
    C278    C    0.86340   0.63968   0.89690   1.000
    C279    C    0.82561   0.76116   0.86227   1.000
    C280    C    0.98118   0.31344   0.55590   1.000
    C281    C    0.98497   0.20340   0.49085   1.000
    C282    C    0.00414   0.23842   0.22207   1.000
    C283    C    0.94431   0.34361   0.16860   1.000
    C284    C    0.93418   0.56983   0.32487   1.000
    C285    C    0.87086   0.56883   0.43393   1.000
    C286    C    0.63662   0.36024   0.39683   1.000
    C287    C    0.67433   0.23878   0.36224   1.000
    O288    O    0.47679   0.24006   0.00000   1.000
    O289    O    0.44818   0.29717   0.03356   1.000
    O290    O    0.47488   0.29508   0.97193   1.000
    O291    O    0.02319   0.74006   0.00000   1.000
    O292    O    0.99807   0.68683   0.95641   1.000
    O293    O    0.50191   0.18684   0.95641   1.000
    O294    O    0.05181   0.79717   0.03357   1.000
    O295    O    0.02510   0.79508   0.97194   1.000
    O296    O    0.42281   0.41709   0.03593   1.000
    O297    O    0.07727   0.91708   0.03598   1.000
    O298    O    0.31721   0.30573   0.03943   1.000
    O299    O    0.18279   0.80569   0.03952   1.000
    O300    O    0.02375   0.18150   0.09855   1.000
    O301    O    0.97487   0.20491   0.02669   1.000
    O302    O    0.47622   0.68149   0.09857   1.000
    O303    O    0.52510   0.70490   0.02670   1.000
    O304    O    0.02908   0.91458   0.06093   1.000
    O305    O    0.47097   0.41456   0.06098   1.000
    O306    O    0.43231   0.36211   0.06426   1.000
    O307    O    0.41400   0.42583   0.09399   1.000
    O308    O    0.06772   0.86211   0.06430   1.000
    O309    O    0.08602   0.92583   0.09403   1.000
    O310    O    0.37960   0.30670   0.06614   1.000
    O311    O    0.32764   0.26408   0.06684   1.000
    O312    O    0.30815   0.31526   0.09748   1.000
    O313    O    0.12039   0.80669   0.06619   1.000
    O314    O    0.17232   0.76406   0.06693   1.000
    O315    O    0.19183   0.81524   0.09760   1.000
    O316    O    0.38459   0.55145   0.09304   1.000
    O317    O    0.11542   0.05146   0.09308   1.000
    O318    O    0.44721   0.30279   0.10309   1.000
    O319    O    0.05275   0.80280   0.10311   1.000
    O320    O    0.28095   0.43419   0.09897   1.000
    O321    O    0.21908   0.93420   0.09910   1.000
    O322    O    0.07771   0.34505   0.09511   1.000
    O323    O    0.98157   0.33670   0.12788   1.000
    O324    O    0.00190   0.31316   0.03899   1.000
    O325    O    0.42226   0.84502   0.09513   1.000
    O326    O    0.51840   0.83670   0.12788   1.000
    O327    O    0.49807   0.81315   0.03899   1.000
    O328    O    0.16395   0.33483   0.11360   1.000
    O329    O    0.33602   0.83480   0.11366   1.000
    O330    O    0.39476   0.48941   0.12343   1.000
    O331    O    0.41620   0.55172   0.14762   1.000
    O332    O    0.10525   0.98942   0.12345   1.000
    O333    O    0.08381   0.05174   0.14763   1.000
    O334    O    0.23809   0.32206   0.12697   1.000
    O335    O    0.18285   0.27409   0.13092   1.000
    O336    O    0.26188   0.82204   0.12709   1.000
    O337    O    0.31712   0.77406   0.13098   1.000
    O338    O    0.34313   0.43422   0.12544   1.000
    O339    O    0.28998   0.37905   0.12705   1.000
    O340    O    0.27807   0.43745   0.14688   1.000
    O341    O    0.15688   0.93421   0.12551   1.000
    O342    O    0.21001   0.87903   0.12719   1.000
    O343    O    0.22190   0.93743   0.14702   1.000
    O344    O    0.41077   0.43046   0.16224   1.000
    O345    O    0.08920   0.93046   0.16225   1.000
    O346    O    0.30476   0.32000   0.16579   1.000
    O347    O    0.19518   0.81999   0.16590   1.000
    O348    O    0.12036   0.20767   0.13935   1.000
    O349    O    0.37960   0.70765   0.13940   1.000
    O350    O    0.50108   0.29478   0.13986   1.000
    O351    O    0.46371   0.25625   0.14080   1.000
    O352    O    0.44389   0.30736   0.17132   1.000
    O353    O    0.99884   0.79482   0.13986   1.000
    O354    O    0.03618   0.75627   0.14082   1.000
    O355    O    0.05603   0.80738   0.17134   1.000
    O356    O    0.06617   0.12314   0.15798   1.000
    O357    O    0.03525   0.20746   0.18154   1.000
    O358    O    0.43382   0.62312   0.15800   1.000
    O359    O    0.46472   0.70746   0.18155   1.000
    O360    O    0.95197   0.32164   0.19639   1.000
    O361    O    0.54801   0.82165   0.19639   1.000
    O362    O    0.46442   0.42393   0.19917   1.000
    O363    O    0.42574   0.37131   0.20074   1.000
    O364    O    0.41466   0.42972   0.22110   1.000
    O365    O    0.03550   0.92393   0.19914   1.000
    O366    O    0.07417   0.87132   0.20075   1.000
    O367    O    0.08523   0.92975   0.22111   1.000
    O368    O    0.37289   0.31602   0.20268   1.000
    O369    O    0.32057   0.27362   0.20384   1.000
    O370    O    0.30825   0.31868   0.22501   1.000
    O371    O    0.12702   0.81603   0.20272   1.000
    O372    O    0.17931   0.77362   0.20392   1.000
    O373    O    0.19164   0.81868   0.22509   1.000
    O374    O    0.44037   0.31327   0.23964   1.000
    O375    O    0.05954   0.81329   0.23966   1.000
    O376    O    0.51809   0.76905   0.22312   1.000
    O377    O    0.98189   0.26905   0.22312   1.000
    O378    O    0.94037   0.31323   0.26019   1.000
    O379    O    0.55962   0.81324   0.26020   1.000
    O380    O    0.80825   0.31864   0.27477   1.000
    O381    O    0.69173   0.81857   0.27482   1.000
    O382    O    0.91463   0.42970   0.27837   1.000
    O383    O    0.58549   0.92970   0.27851   1.000
    O384    O    0.48188   0.26907   0.27675   1.000
    O385    O    0.45198   0.32166   0.30346   1.000
    O386    O    0.01801   0.76911   0.27680   1.000
    O387    O    0.04796   0.82167   0.30347   1.000
    O388    O    0.53522   0.20745   0.31839   1.000
    O389    O    0.96469   0.70747   0.31844   1.000
    O390    O    0.82057   0.27357   0.29601   1.000
    O391    O    0.67936   0.77353   0.29608   1.000
    O392    O    0.87289   0.31598   0.29712   1.000
    O393    O    0.92574   0.37128   0.29897   1.000
    O394    O    0.94389   0.30731   0.32850   1.000
    O395    O    0.62708   0.81596   0.29716   1.000
    O396    O    0.57429   0.87130   0.29897   1.000
    O397    O    0.55606   0.80734   0.32850   1.000
    O398    O    0.80476   0.31994   0.33396   1.000
    O399    O    0.69521   0.81990   0.33401   1.000
    O400    O    0.53568   0.92396   0.30038   1.000
    O401    O    0.96441   0.42392   0.30042   1.000
    O402    O    0.58930   0.93042   0.33737   1.000
    O403    O    0.91076   0.43041   0.33737   1.000
    O404    O    0.56609   0.12316   0.34188   1.000
    O405    O    0.58374   0.05172   0.35212   1.000
    O406    O    0.93391   0.62314   0.34193   1.000
    O407    O    0.91631   0.55170   0.35215   1.000
    O408    O    0.77812   0.43736   0.35266   1.000
    O409    O    0.72194   0.93734   0.35273   1.000
    O410    O    0.48158   0.33670   0.37198   1.000
    O411    O    0.01839   0.83670   0.37199   1.000
    O412    O    0.53616   0.75623   0.35908   1.000
    O413    O    0.96371   0.25618   0.35908   1.000
    O414    O    0.62033   0.20763   0.36061   1.000
    O415    O    0.52377   0.18151   0.40149   1.000
    O416    O    0.87962   0.70760   0.36064   1.000
    O417    O    0.97621   0.68151   0.40151   1.000
    O418    O    0.49884   0.79479   0.35996   1.000
    O419    O    0.00109   0.29470   0.35997   1.000
    O420    O    0.94722   0.30271   0.39673   1.000
    O421    O    0.55271   0.80275   0.39674   1.000
    O422    O    0.68283   0.27404   0.36898   1.000
    O423    O    0.81712   0.77399   0.36902   1.000
    O424    O    0.78998   0.37897   0.37258   1.000
    O425    O    0.73808   0.32200   0.37280   1.000
    O426    O    0.80815   0.31518   0.40227   1.000
    O427    O    0.71002   0.87894   0.37264   1.000
    O428    O    0.76188   0.82196   0.37284   1.000
    O429    O    0.69179   0.81516   0.40231   1.000
    O430    O    0.84313   0.43414   0.37416   1.000
    O431    O    0.89478   0.48931   0.37622   1.000
    O432    O    0.91402   0.42574   0.40559   1.000
    O433    O    0.65691   0.93413   0.37419   1.000
    O434    O    0.60526   0.98933   0.37623   1.000
    O435    O    0.58600   0.92575   0.40560   1.000
    O436    O    0.78093   0.43413   0.40058   1.000
    O437    O    0.71908   0.93409   0.40065   1.000
    O438    O    0.66397   0.33477   0.38627   1.000
    O439    O    0.83600   0.83473   0.38630   1.000
    O440    O    0.88464   0.55120   0.40668   1.000
    O441    O    0.61540   0.05125   0.40668   1.000
    O442    O    0.57773   0.34502   0.40478   1.000
    O443    O    0.92224   0.84499   0.40479   1.000
    O444    O    0.50192   0.31319   0.46093   1.000
    O445    O    0.99807   0.81318   0.46093   1.000
    O446    O    0.82765   0.26400   0.43302   1.000
    O447    O    0.67225   0.76398   0.43306   1.000
    O448    O    0.87961   0.30662   0.43367   1.000
    O449    O    0.93233   0.36201   0.43543   1.000
    O450    O    0.94819   0.29710   0.46494   1.000
    O451    O    0.62032   0.80662   0.43369   1.000
    O452    O    0.56764   0.86203   0.43543   1.000
    O453    O    0.55174   0.79711   0.46495   1.000
    O454    O    0.81722   0.30563   0.46037   1.000
    O455    O    0.68270   0.80561   0.46041   1.000
    O456    O    0.52898   0.91447   0.43857   1.000
    O457    O    0.57710   0.91701   0.46366   1.000
    O458    O    0.96845   0.41444   0.43858   1.000
    O459    O    0.92288   0.41699   0.46366   1.000
    O460    O    0.47494   0.20496   0.47339   1.000
    O461    O    0.02507   0.70496   0.47340   1.000
    O462    O    0.52314   0.74001   0.49403   1.000
    O463    O    0.49806   0.68680   0.53904   1.000
    O464    O    0.97680   0.24000   0.49402   1.000
    O465    O    0.00191   0.18680   0.53904   1.000
    O466    O    0.97491   0.29502   0.52655   1.000
    O467    O    0.52503   0.79503   0.52658   1.000
    O468    O    0.47683   0.25997   0.50594   1.000
    O469    O    0.44823   0.20287   0.53498   1.000
    O470    O    0.02318   0.75998   0.50595   1.000
    O471    O    0.05178   0.70289   0.53503   1.000
    O472    O    0.07710   0.58300   0.53631   1.000
    O473    O    0.42287   0.08298   0.53631   1.000
    O474    O    0.31728   0.19437   0.53953   1.000
    O475    O    0.18276   0.69435   0.53960   1.000
    O476    O    0.02377   0.31848   0.59844   1.000
    O477    O    0.47620   0.81848   0.59847   1.000
    O478    O    0.02897   0.58555   0.56139   1.000
    O479    O    0.47099   0.08551   0.56140   1.000
    O480    O    0.43234   0.13795   0.56450   1.000
    O481    O    0.41398   0.07423   0.59437   1.000
    O482    O    0.06765   0.63798   0.56454   1.000
    O483    O    0.08596   0.57425   0.59438   1.000
    O484    O    0.37965   0.19336   0.56620   1.000
    O485    O    0.32772   0.23600   0.56687   1.000
    O486    O    0.30818   0.18483   0.59763   1.000
    O487    O    0.12037   0.69337   0.56630   1.000
    O488    O    0.17233   0.73599   0.56695   1.000
    O489    O    0.19182   0.68481   0.59771   1.000
    O490    O    0.11534   0.44878   0.59327   1.000
    O491    O    0.38458   0.94874   0.59329   1.000
    O492    O    0.44726   0.19724   0.60320   1.000
    O493    O    0.05276   0.69727   0.60314   1.000
    O494    O    0.28089   0.06590   0.59932   1.000
    O495    O    0.21905   0.56586   0.59939   1.000
    O496    O    0.07773   0.15499   0.59518   1.000
    O497    O    0.98158   0.16329   0.62799   1.000
    O498    O    0.42225   0.65497   0.59517   1.000
    O499    O    0.51839   0.66329   0.62799   1.000
    O500    O    0.33601   0.66522   0.61367   1.000
    O501    O    0.16398   0.16526   0.61367   1.000
    O502    O    0.10519   0.51068   0.62373   1.000
    O503    O    0.08367   0.44829   0.64780   1.000
    O504    O    0.39471   0.01066   0.62374   1.000
    O505    O    0.41624   0.94826   0.64782   1.000
    O506    O    0.23809   0.17803   0.62713   1.000
    O507    O    0.18285   0.22600   0.63090   1.000
    O508    O    0.26189   0.67799   0.62718   1.000
    O509    O    0.31715   0.72595   0.63099   1.000
    O510    O    0.34307   0.06586   0.62579   1.000
    O511    O    0.28995   0.12104   0.62734   1.000
    O512    O    0.27804   0.06265   0.64724   1.000
    O513    O    0.15685   0.56585   0.62582   1.000
    O514    O    0.21000   0.62102   0.62739   1.000
    O515    O    0.22186   0.56262   0.64731   1.000
    O516    O    0.41068   0.06957   0.66260   1.000
    O517    O    0.08922   0.56958   0.66260   1.000
    O518    O    0.30477   0.18009   0.66597   1.000
    O519    O    0.19522   0.68005   0.66602   1.000
    O520    O    0.12036   0.29239   0.63929   1.000
    O521    O    0.37964   0.79236   0.63936   1.000
    O522    O    0.99889   0.70528   0.63991   1.000
    O523    O    0.03626   0.74381   0.64075   1.000
    O524    O    0.05609   0.69267   0.67138   1.000
    O525    O    0.50113   0.20520   0.64001   1.000
    O526    O    0.46381   0.24376   0.64089   1.000
    O527    O    0.44391   0.19264   0.67147   1.000
    O528    O    0.06607   0.37684   0.65804   1.000
    O529    O    0.03529   0.29251   0.68153   1.000
    O530    O    0.43388   0.87683   0.65805   1.000
    O531    O    0.46476   0.79253   0.68155   1.000
    O532    O    0.95201   0.17831   0.69650   1.000
    O533    O    0.54799   0.67833   0.69651   1.000
    O534    O    0.03557   0.57607   0.69955   1.000
    O535    O    0.07424   0.62870   0.70100   1.000
    O536    O    0.08535   0.57029   0.72146   1.000
    O537    O    0.46429   0.07603   0.69959   1.000
    O538    O    0.42569   0.12869   0.70100   1.000
    O539    O    0.41449   0.07029   0.72146   1.000
    O540    O    0.37289   0.18402   0.70281   1.000
    O541    O    0.32062   0.22646   0.70390   1.000
    O542    O    0.30825   0.18141   0.72515   1.000
    O543    O    0.12709   0.68401   0.70285   1.000
    O544    O    0.17940   0.72641   0.70396   1.000
    O545    O    0.19172   0.68135   0.72520   1.000
    O546    O    0.44036   0.18675   0.73977   1.000
    O547    O    0.05961   0.68676   0.73979   1.000
    O548    O    0.98196   0.23088   0.72317   1.000
    O549    O    0.51810   0.73092   0.72318   1.000
    O550    O    0.94043   0.18670   0.76031   1.000
    O551    O    0.55960   0.68672   0.76033   1.000
    O552    O    0.80833   0.18131   0.77489   1.000
    O553    O    0.69173   0.68131   0.77497   1.000
    O554    O    0.91474   0.07024   0.77886   1.000
    O555    O    0.58532   0.57026   0.77887   1.000
    O556    O    0.48188   0.23094   0.77685   1.000
    O557    O    0.45197   0.17834   0.80359   1.000
    O558    O    0.01809   0.73094   0.77686   1.000
    O559    O    0.04801   0.67834   0.80359   1.000
    O560    O    0.96472   0.79252   0.81842   1.000
    O561    O    0.53525   0.29253   0.81842   1.000
    O562    O    0.82066   0.22637   0.79606   1.000
    O563    O    0.67940   0.72637   0.79614   1.000
    O564    O    0.87295   0.18396   0.79725   1.000
    O565    O    0.92580   0.12866   0.79922   1.000
    O566    O    0.94394   0.19260   0.82863   1.000
    O567    O    0.62709   0.68397   0.79730   1.000
    O568    O    0.57423   0.62868   0.79923   1.000
    O569    O    0.55609   0.69262   0.82864   1.000
    O570    O    0.80480   0.18000   0.83407   1.000
    O571    O    0.69521   0.67999   0.83415   1.000
    O572    O    0.53556   0.57606   0.80080   1.000
    O573    O    0.96447   0.07606   0.80082   1.000
    O574    O    0.91078   0.06952   0.83771   1.000
    O575    O    0.58922   0.56953   0.83773   1.000
    O576    O    0.56616   0.37687   0.84196   1.000
    O577    O    0.58378   0.44826   0.85234   1.000
    O578    O    0.93380   0.87685   0.84198   1.000
    O579    O    0.91616   0.94824   0.85234   1.000
    O580    O    0.77808   0.06256   0.85296   1.000
    O581    O    0.72191   0.56254   0.85310   1.000
    O582    O    0.01840   0.66329   0.87210   1.000
    O583    O    0.48158   0.16329   0.87210   1.000
    O584    O    0.96379   0.24372   0.85916   1.000
    O585    O    0.53626   0.74374   0.85917   1.000
    O586    O    0.62037   0.29234   0.86057   1.000
    O587    O    0.52376   0.31849   0.90140   1.000
    O588    O    0.87961   0.79232   0.86060   1.000
    O589    O    0.97622   0.81849   0.90141   1.000
    O590    O    0.49890   0.70521   0.86010   1.000
    O591    O    0.00113   0.20517   0.86011   1.000
    O592    O    0.94723   0.19719   0.89686   1.000
    O593    O    0.55276   0.69720   0.89688   1.000
    O594    O    0.68286   0.22593   0.86899   1.000
    O595    O    0.81713   0.72590   0.86905   1.000
    O596    O    0.78997   0.12095   0.87278   1.000
    O597    O    0.73809   0.17795   0.87288   1.000
    O598    O    0.80815   0.18475   0.90237   1.000
    O599    O    0.71000   0.62095   0.87289   1.000
    O600    O    0.76189   0.67793   0.87296   1.000
    O601    O    0.69183   0.68474   0.90246   1.000
    O602    O    0.84310   0.06577   0.87446   1.000
    O603    O    0.89472   0.01056   0.87652   1.000
    O604    O    0.91395   0.07415   0.90593   1.000
    O605    O    0.65686   0.56577   0.87453   1.000
    O606    O    0.60522   0.51057   0.87654   1.000
    O607    O    0.58598   0.57415   0.90595   1.000
    O608    O    0.78089   0.06579   0.90088   1.000
    O609    O    0.71903   0.56580   0.90101   1.000
    O610    O    0.66396   0.16519   0.88632   1.000
    O611    O    0.83603   0.66516   0.88636   1.000
    O612    O    0.88455   0.94852   0.90690   1.000
    O613    O    0.61539   0.44854   0.90690   1.000
    O614    O    0.57771   0.15496   0.90485   1.000
    O615    O    0.92227   0.65494   0.90486   1.000
    O616    O    0.82765   0.23593   0.93302   1.000
    O617    O    0.67234   0.73591   0.93314   1.000
    O618    O    0.87959   0.19329   0.93378   1.000
    O619    O    0.93226   0.13788   0.93566   1.000
    O620    O    0.94816   0.20282   0.96506   1.000
    O621    O    0.62037   0.69329   0.93384   1.000
    O622    O    0.56767   0.63788   0.93569   1.000
    O623    O    0.55180   0.70282   0.96508   1.000
    O624    O    0.81719   0.19430   0.96045   1.000
    O625    O    0.68277   0.69427   0.96054   1.000
    O626    O    0.96840   0.08541   0.93899   1.000
    O627    O    0.92270   0.08291   0.96399   1.000
    O628    O    0.52901   0.58542   0.93898   1.000
    O629    O    0.57717   0.58290   0.96402   1.000
    O630    O    0.97678   0.25993   0.99406   1.000
    O631    O    0.52319   0.75992   0.99407   1.000
loop_
    _geom_bond_atom_site_label_1
    _geom_bond_atom_site_label_2
    _geom_bond_distance
    _geom_bond_site_symmetry_2
    _ccdc_geom_bond_type
    C140   O288      0.64343      .   S
    C241   O288      0.64343      .   S
    C140   O289      0.78007      .   S
    C141   O289      0.78007      .   S
    C140   O290      0.61377  1_554   S
    C240   O290      0.61377      .   S
    C265   O291      0.64344      .   S
    C182   O291      0.64344      .   S
    C265   O292      0.89221  1_454   S
    C11    O292      0.89221      .   S
    C241   O293      0.89223  1_554   S
    C5     O293      0.89223      .   S
    C182   O294      0.78021      .   S
    C183   O294      0.78021      .   S
    C182   O295      0.61371  1_554   S
    C264   O295      0.61371      .   S
    C48    O296      0.54838      .   S
    C149   O296      0.54838      .   S
    C84    O297      0.54878      .   S
    C191   O297      0.54878      .   S
    C47    O298      0.55064      .   S
    C148   O298      0.55064      .   S
    C83    O299      0.55058      .   S
    C190   O299      0.55058      .   S
    C232   O300      1.02980  1_655   S
    C2     O300      1.02980      .   S
    C232   O301      0.63459      .   S
    C126   O301      0.63459  1_556   S
    C272   O302      1.03001      .   S
    C12    O302      1.03001      .   S
    C272   O303      0.63450      .   S
    C196   O303      0.63450  1_556   S
    C85    O304      0.55024  1_655   S
    C191   O304      0.55024      .   S
    C49    O305      0.55022      .   S
    C149   O305      0.55022      .   S
    C149   O306      0.77063      .   S
    C141   O306      0.77063      .   S
    C149   O307      0.77331      .   S
    C145   O307      0.77331      .   S
    C191   O308      0.77058      .   S
    C183   O308      0.77058      .   S
    C191   O309      0.77289      .   S
    C187   O309      0.77289      .   S
    C148   O310      0.77531      .   S
    C141   O310      0.77531      .   S
    C148   O311      0.54944      .   S
    C46    O311      0.54944      .   S
    C148   O312      0.77444      .   S
    C147   O312      0.77444      .   S
    C190   O313      0.77529      .   S
    C183   O313      0.77529      .   S
    C190   O314      0.54944      .   S
    C82    O314      0.54944      .   S
    C190   O315      0.77502      .   S
    C189   O315      0.77502      .   S
    C245   O316      0.62520      .   S
    C152   O316      0.62520      .   S
    C269   O317      0.62473      .   S
    C194   O317      0.62473      .   S
    C141   O318      0.77214      .   S
    C142   O318      0.77214      .   S
    C183   O319      0.77221      .   S
    C184   O319      0.77221      .   S
    C45    O320      0.54875      .   S
    C146   O320      0.54875      .   S
    C81    O321      0.54876      .   S
    C188   O321      0.54876      .   S
    C3     O322      0.96716      .   S
    C246   O322      0.96716      .   S
    C3     O323      0.95646  1_455   S
    C283   O323      0.95646      .   S
    C3     O324      0.96865      .   S
    C233   O324      0.96865  1_656   S
    C13    O325      0.96722      .   S
    C270   O325      0.96722      .   S
    C13    O326      0.95648      .   S
    C227   O326      0.95648      .   S
    C13    O327      0.96867      .   S
    C273   O327      0.96867  1_556   S
    C246   O328      0.64261      .   S
    C153   O328      0.64261      .   S
    C270   O329      0.64261      .   S
    C195   O329      0.64261      .   S
    C152   O330      0.76727      .   S
    C145   O330      0.76727      .   S
    C152   O331      0.65368      .   S
    C244   O331      0.65368      .   S
    C194   O332      0.76744  1_545   S
    C187   O332      0.76744      .   S
    C194   O333      0.65371      .   S
    C268   O333      0.65371      .   S
    C153   O334      0.76397      .   S
    C147   O334      0.76397      .   S
    C153   O335      0.63402      .   S
    C247   O335      0.63402      .   S
    C195   O336      0.76409      .   S
    C189   O336      0.76409      .   S
    C195   O337      0.63403      .   S
    C271   O337      0.63403      .   S
    C146   O338      0.77318      .   S
    C145   O338      0.77318      .   S
    C146   O339      0.76851      .   S
    C147   O339      0.76851      .   S
    C146   O340      0.55037      .   S
    C44    O340      0.55037      .   S
    C188   O341      0.77319      .   S
    C187   O341      0.77319      .   S
    C188   O342      0.76858      .   S
    C189   O342      0.76858      .   S
    C188   O343      0.55040      .   S
    C80    O343      0.55040      .   S
    C145   O344      0.76690      .   S
    C144   O344      0.76690      .   S
    C187   O345      0.76687      .   S
    C186   O345      0.76687      .   S
    C147   O346      0.77452      .   S
    C150   O346      0.77452      .   S
    C189   O347      0.77388      .   S
    C192   O347      0.77388      .   S
    C247   O348      0.99994      .   S
    C2     O348      0.99994      .   S
    C271   O349      1.00006      .   S
    C12    O349      1.00006      .   S
    C142   O350      0.55025      .   S
    C40    O350      0.55025      .   S
    C142   O351      0.54827      .   S
    C41    O351      0.54827      .   S
    C142   O352      0.76929      .   S
    C143   O352      0.76929      .   S
    C184   O353      0.55033  1_455   S
    C76    O353      0.55033      .   S
    C184   O354      0.54827      .   S
    C77    O354      0.54827      .   S
    C184   O355      0.76927      .   S
    C185   O355      0.76927      .   S
    C2     O356      0.97090      .   S
    C268   O356      0.97090      .   S
    C2     O357      1.03815      .   S
    C282   O357      1.03815      .   S
    C12    O358      0.97086      .   S
    C244   O358      0.97086      .   S
    C12    O359      1.03793      .   S
    C226   O359      1.03793      .   S
    C283   O360      0.64710      .   S
    C221   O360      0.64710      .   S
    C227   O361      0.64701      .   S
    C123   O361      0.64701      .   S
    C144   O362      0.54997      .   S
    C43    O362      0.54997      .   S
    C144   O363      0.77154      .   S
    C143   O363      0.77154      .   S
    C144   O364      0.54808      .   S
    C42    O364      0.54808      .   S
    C186   O365      0.54998      .   S
    C79    O365      0.54998      .   S
    C186   O366      0.77153      .   S
    C185   O366      0.77153      .   S
    C186   O367      0.54806      .   S
    C78    O367      0.54806      .   S
    C150   O368      0.77557      .   S
    C143   O368      0.77557      .   S
    C150   O369      0.54939      .   S
    C51    O369      0.54939      .   S
    C150   O370      0.55024      .   S
    C50    O370      0.55024      .   S
    C192   O371      0.77561      .   S
    C185   O371      0.77561      .   S
    C192   O372      0.54940      .   S
    C87    O372      0.54940      .   S
    C192   O373      0.55022      .   S
    C86    O373      0.55022      .   S
    C143   O374      0.76505      .   S
    C151   O374      0.76505      .   S
    C185   O375      0.76493      .   S
    C193   O375      0.76493      .   S
    C226   O376      0.63208      .   S
    C123   O376      0.63208      .   S
    C282   O377      0.63213  1_455   S
    C221   O377      0.63213      .   S
    C221   O378      0.76476      .   S
    C213   O378      0.76476      .   S
    C123   O379      0.76483      .   S
    C115   O379      0.76483      .   S
    C110   O380      0.55026      .   S
    C220   O380      0.55026      .   S
    C26    O381      0.55029      .   S
    C122   O381      0.55029      .   S
    C102   O382      0.55021      .   S
    C214   O382      0.55021      .   S
    C18    O383      0.54807      .   S
    C116   O383      0.54807      .   S
    C151   O384      0.63204      .   S
    C242   O384      0.63204      .   S
    C151   O385      0.64708      .   S
    C243   O385      0.64708      .   S
    C193   O386      0.63209      .   S
    C266   O386      0.63209  1_655   S
    C193   O387      0.64711      .   S
    C267   O387      0.64711      .   S
    C242   O388      1.03830      .   S
    C8     O388      1.03830      .   S
    C266   O389      1.03770      .   S
    C6     O389      1.03770      .   S
    C111   O390      0.54940      .   S
    C220   O390      0.54940      .   S
    C27    O391      0.54940      .   S
    C122   O391      0.54940      .   S
    C213   O392      0.77563      .   S
    C220   O392      0.77563      .   S
    C213   O393      0.77170      .   S
    C214   O393      0.77170      .   S
    C213   O394      0.76936      .   S
    C212   O394      0.76936      .   S
    C115   O395      0.77563      .   S
    C122   O395      0.77563      .   S
    C115   O396      0.77169      .   S
    C116   O396      0.77169      .   S
    C115   O397      0.76934      .   S
    C114   O397      0.76934      .   S
    C220   O398      0.77386      .   S
    C217   O398      0.77386      .   S
    C122   O399      0.77388      .   S
    C119   O399      0.77388      .   S
    C19    O400      0.54996      .   S
    C116   O400      0.54996      .   S
    C103   O401      0.54997      .   S
    C214   O401      0.54997      .   S
    C116   O402      0.76690      .   S
    C117   O402      0.76690      .   S
    C214   O403      0.76690      .   S
    C215   O403      0.76690      .   S
    C228   O404      0.97121      .   S
    C8     O404      0.97121      .   S
    C228   O405      0.65408      .   S
    C124   O405      0.65408      .   S
    C284   O406      0.97105      .   S
    C6     O406      0.97105      .   S
    C284   O407      0.65361      .   S
    C222   O407      0.65361      .   S
    C104   O408      0.55040      .   S
    C216   O408      0.55040      .   S
    C20    O409      0.55044      .   S
    C118   O409      0.55044      .   S
    C243   O410      0.95661      .   S
    C9     O410      0.95661      .   S
    C267   O411      0.95660      .   S
    C7     O411      0.95660  1_655   S
    C17    O412      0.54827      .   S
    C114   O412      0.54827      .   S
    C101   O413      0.54827      .   S
    C212   O413      0.54827      .   S
    C8     O414      0.99992      .   S
    C287   O414      0.99992      .   S
    C8     O415      1.03046      .   S
    C256   O415      1.03046      .   S
    C6     O416      0.99998      .   S
    C231   O416      0.99998      .   S
    C6     O417      1.03059      .   S
    C248   O417      1.03059  1_455   S
    C16    O418      0.55026      .   S
    C114   O418      0.55026      .   S
    C100   O419      0.55033      .   S
    C212   O419      0.55033  1_655   S
    C212   O420      0.77210      .   S
    C211   O420      0.77210      .   S
    C114   O421      0.77212      .   S
    C113   O421      0.77212      .   S
    C287   O422      0.63402      .   S
    C223   O422      0.63402      .   S
    C231   O423      0.63402      .   S
    C125   O423      0.63402      .   S
    C217   O424      0.76849      .   S
    C216   O424      0.76849      .   S
    C217   O425      0.76402      .   S
    C223   O425      0.76402      .   S
    C217   O426      0.77503      .   S
    C218   O426      0.77503      .   S
    C119   O427      0.76853      .   S
    C118   O427      0.76853      .   S
    C119   O428      0.76402      .   S
    C125   O428      0.76402      .   S
    C119   O429      0.77496      .   S
    C120   O429      0.77496      .   S
    C215   O430      0.77311      .   S
    C216   O430      0.77311      .   S
    C215   O431      0.76707      .   S
    C222   O431      0.76707      .   S
    C215   O432      0.77284      .   S
    C219   O432      0.77284      .   S
    C117   O433      0.77309      .   S
    C118   O433      0.77309      .   S
    C117   O434      0.76730      .   S
    C124   O434      0.76730  1_545   S
    C117   O435      0.77289      .   S
    C121   O435      0.77289      .   S
    C216   O436      0.54870      .   S
    C105   O436      0.54870      .   S
    C118   O437      0.54869      .   S
    C21    O437      0.54869      .   S
    C223   O438      0.64264      .   S
    C286   O438      0.64264      .   S
    C125   O439      0.64264      .   S
    C230   O439      0.64264      .   S
    C222   O440      0.62481      .   S
    C285   O440      0.62481      .   S
    C124   O441      0.62481      .   S
    C229   O441      0.62481      .   S
    C286   O442      0.96721      .   S
    C9     O442      0.96721      .   S
    C230   O443      0.96716      .   S
    C7     O443      0.96716      .   S
    C9     O444      0.96850      .   S
    C257   O444      0.96850      .   S
    C7     O445      0.96854      .   S
    C249   O445      0.96854  1_455   S
    C106   O446      0.54944      .   S
    C218   O446      0.54944      .   S
    C22    O447      0.54944      .   S
    C120   O447      0.54944      .   S
    C211   O448      0.77529      .   S
    C218   O448      0.77529      .   S
    C211   O449      0.77037      .   S
    C219   O449      0.77037      .   S
    C211   O450      0.76065      .   S
    C210   O450      0.76065      .   S
    C113   O451      0.77531      .   S
    C120   O451      0.77531      .   S
    C113   O452      0.77037      .   S
    C121   O452      0.77037      .   S
    C113   O453      0.76067      .   S
    C112   O453      0.76067      .   S
    C218   O454      0.55056      .   S
    C107   O454      0.55056      .   S
    C120   O455      0.55056      .   S
    C23    O455      0.55056      .   S
    C121   O456      0.55025      .   S
    C25    O456      0.55025      .   S
    C121   O457      0.54876      .   S
    C24    O457      0.54876      .   S
    C219   O458      0.51165      .   S
    C109   O458      0.51165  1_455   S
    C219   O459      0.54874      .   S
    C108   O459      0.54874      .   S
    C256   O460      0.63459      .   S
    C168   O460      0.63459      .   S
    C248   O461      0.63463      .   S
    C154   O461      0.63463      .   S
    C225   O462      0.64612      .   S
    C112   O462      0.64612      .   S
    C225   O463      0.96850      .   S
    C1     O463      0.96850      .   S
    C281   O464      0.64610      .   S
    C210   O464      0.64610      .   S
    C281   O465      0.96846  1_655   S
    C15    O465      0.96846      .   S
    C210   O466      0.63431      .   S
    C280   O466      0.63431      .   S
    C112   O467      0.63459      .   S
    C224   O467      0.63459      .   S
    C168   O468      0.64611      .   S
    C257   O468      0.64611      .   S
    C168   O469      0.76010      .   S
    C169   O469      0.76010      .   S
    C154   O470      0.64611      .   S
    C249   O470      0.64611      .   S
    C154   O471      0.76065      .   S
    C155   O471      0.76065      .   S
    C60    O472      0.54874      .   S
    C163   O472      0.54874      .   S
    C72    O473      0.54868      .   S
    C177   O473      0.54868      .   S
    C71    O474      0.54992      .   S
    C176   O474      0.54992      .   S
    C59    O475      0.55064      .   S
    C162   O475      0.55064      .   S
    C280   O476      1.03087  1_655   S
    C14    O476      1.03087      .   S
    C224   O477      1.03047      .   S
    C0     O477      1.03047      .   S
    C61    O478      0.55025  1_655   S
    C163   O478      0.55025      .   S
    C73    O479      0.55025      .   S
    C177   O479      0.55025      .   S
    C177   O480      0.77032      .   S
    C169   O480      0.77032      .   S
    C177   O481      0.77296      .   S
    C173   O481      0.77296      .   S
    C163   O482      0.77037      .   S
    C155   O482      0.77037      .   S
    C163   O483      0.77291      .   S
    C159   O483      0.77291      .   S
    C176   O484      0.77531      .   S
    C169   O484      0.77531      .   S
    C176   O485      0.54949      .   S
    C70    O485      0.54949      .   S
    C176   O486      0.77560      .   S
    C175   O486      0.77560      .   S
    C162   O487      0.77529      .   S
    C155   O487      0.77529      .   S
    C162   O488      0.54944      .   S
    C58    O488      0.54944      .   S
    C162   O489      0.77504      .   S
    C161   O489      0.77504      .   S
    C253   O490      0.62452      .   S
    C166   O490      0.62452      .   S
    C261   O491      0.62480      .   S
    C180   O491      0.62480      .   S
    C169   O492      0.77276      .   S
    C170   O492      0.77276      .   S
    C155   O493      0.77060      .   S
    C156   O493      0.77060      .   S
    C69    O494      0.54893      .   S
    C174   O494      0.54893      .   S
    C57    O495      0.54870      .   S
    C160   O495      0.54870      .   S
    C15    O496      0.96716      .   S
    C262   O496      0.96716      .   S
    C15    O497      0.95667  1_455   S
    C235   O497      0.95667      .   S
    C1     O498      0.96715      .   S
    C254   O498      0.96715      .   S
    C1     O499      0.95660      .   S
    C275   O499      0.95660      .   S
    C254   O500      0.64275      .   S
    C167   O500      0.64275      .   S
    C262   O501      0.64265      .   S
    C181   O501      0.64265      .   S
    C166   O502      0.76711      .   S
    C159   O502      0.76711      .   S
    C166   O503      0.65388      .   S
    C252   O503      0.65388      .   S
    C180   O504      0.76730  1_565   S
    C173   O504      0.76730      .   S
    C180   O505      0.65359      .   S
    C260   O505      0.65359      .   S
    C181   O506      0.76402      .   S
    C175   O506      0.76402      .   S
    C181   O507      0.63388      .   S
    C263   O507      0.63388      .   S
    C167   O508      0.76403      .   S
    C161   O508      0.76403      .   S
    C167   O509      0.63401      .   S
    C255   O509      0.63401      .   S
    C174   O510      0.77309      .   S
    C173   O510      0.77309      .   S
    C174   O511      0.76852      .   S
    C175   O511      0.76852      .   S
    C174   O512      0.55037      .   S
    C68    O512      0.55037      .   S
    C160   O513      0.77312      .   S
    C159   O513      0.77312      .   S
    C160   O514      0.76850      .   S
    C161   O514      0.76850      .   S
    C160   O515      0.55040      .   S
    C56    O515      0.55040      .   S
    C173   O516      0.76682      .   S
    C172   O516      0.76682      .   S
    C159   O517      0.76682      .   S
    C158   O517      0.76682      .   S
    C175   O518      0.77380      .   S
    C178   O518      0.77380      .   S
    C161   O519      0.77378      .   S
    C164   O519      0.77378      .   S
    C263   O520      1.00001      .   S
    C14    O520      1.00001      .   S
    C255   O521      0.99992      .   S
    C0     O521      0.99992      .   S
    C156   O522      0.55038  1_455   S
    C52    O522      0.55038      .   S
    C156   O523      0.54833      .   S
    C53    O523      0.54833      .   S
    C156   O524      0.77071      .   S
    C157   O524      0.77071      .   S
    C170   O525      0.55026      .   S
    C64    O525      0.55026      .   S
    C170   O526      0.54827      .   S
    C65    O526      0.54827      .   S
    C170   O527      0.76934      .   S
    C171   O527      0.76934      .   S
    C14    O528      0.97104      .   S
    C252   O528      0.97104      .   S
    C14    O529      1.03770      .   S
    C234   O529      1.03770      .   S
    C0     O530      0.97100      .   S
    C260   O530      0.97100      .   S
    C0     O531      1.03777      .   S
    C274   O531      1.03777      .   S
    C235   O532      0.64704      .   S
    C137   O532      0.64704      .   S
    C275   O533      0.64715      .   S
    C207   O533      0.64715      .   S
    C158   O534      0.54998      .   S
    C55    O534      0.54998      .   S
    C158   O535      0.77170      .   S
    C157   O535      0.77170      .   S
    C158   O536      0.54813      .   S
    C54    O536      0.54813      .   S
    C172   O537      0.54997      .   S
    C67    O537      0.54997      .   S
    C172   O538      0.77169      .   S
    C171   O538      0.77169      .   S
    C172   O539      0.54814      .   S
    C66    O539      0.54814      .   S
    C178   O540      0.77562      .   S
    C171   O540      0.77562      .   S
    C178   O541      0.54940      .   S
    C75    O541      0.54940      .   S
    C178   O542      0.55029      .   S
    C74    O542      0.55029      .   S
    C164   O543      0.77563      .   S
    C157   O543      0.77563      .   S
    C164   O544      0.54940      .   S
    C63    O544      0.54940      .   S
    C164   O545      0.55026      .   S
    C62    O545      0.55026      .   S
    C171   O546      0.76482      .   S
    C179   O546      0.76482      .   S
    C157   O547      0.76484      .   S
    C165   O547      0.76484      .   S
    C234   O548      0.63209  1_455   S
    C137   O548      0.63209      .   S
    C274   O549      0.63207      .   S
    C207   O549      0.63207      .   S
    C137   O550      0.76493      .   S
    C129   O550      0.76493      .   S
    C207   O551      0.76497      .   S
    C199   O551      0.76497      .   S
    C38    O552      0.55030      .   S
    C136   O552      0.55030      .   S
    C98    O553      0.55030      .   S
    C206   O553      0.55030      .   S
    C30    O554      0.54807      .   S
    C130   O554      0.54807      .   S
    C90    O555      0.54801      .   S
    C200   O555      0.54801      .   S
    C179   O556      0.63208      .   S
    C258   O556      0.63208      .   S
    C179   O557      0.64708      .   S
    C259   O557      0.64708      .   S
    C165   O558      0.63212      .   S
    C250   O558      0.63212  1_655   S
    C165   O559      0.64702      .   S
    C251   O559      0.64702      .   S
    C250   O560      1.03797      .   S
    C10    O560      1.03797      .   S
    C258   O561      1.03793      .   S
    C4     O561      1.03793      .   S
    C39    O562      0.54941      .   S
    C136   O562      0.54941      .   S
    C99    O563      0.54940      .   S
    C206   O563      0.54940      .   S
    C129   O564      0.77562      .   S
    C136   O564      0.77562      .   S
    C129   O565      0.77152      .   S
    C130   O565      0.77152      .   S
    C129   O566      0.76927      .   S
    C128   O566      0.76927      .   S
    C199   O567      0.77558      .   S
    C206   O567      0.77558      .   S
    C199   O568      0.77155      .   S
    C200   O568      0.77155      .   S
    C199   O569      0.76929      .   S
    C198   O569      0.76929      .   S
    C136   O570      0.77380      .   S
    C133   O570      0.77380      .   S
    C206   O571      0.77388      .   S
    C203   O571      0.77388      .   S
    C91    O572      0.54997      .   S
    C200   O572      0.54997      .   S
    C31    O573      0.54998      .   S
    C130   O573      0.54998      .   S
    C130   O574      0.76688      .   S
    C131   O574      0.76688      .   S
    C200   O575      0.76691      .   S
    C201   O575      0.76691      .   S
    C276   O576      0.97089      .   S
    C4     O576      0.97089      .   S
    C276   O577      0.65375      .   S
    C208   O577      0.65375      .   S
    C236   O578      0.97082      .   S
    C10    O578      0.97082      .   S
    C236   O579      0.65371      .   S
    C138   O579      0.65371      .   S
    C32    O580      0.55040      .   S
    C132   O580      0.55040      .   S
    C92    O581      0.55043      .   S
    C202   O581      0.55043      .   S
    C251   O582      0.95646      .   S
    C11    O582      0.95646  1_655   S
    C259   O583      0.95647      .   S
    C5     O583      0.95647      .   S
    C29    O584      0.54827      .   S
    C128   O584      0.54827      .   S
    C89    O585      0.54827      .   S
    C198   O585      0.54827      .   S
    C4     O586      1.00006      .   S
    C239   O586      1.00006      .   S
    C4     O587      1.03000      .   S
    C240   O587      1.03000      .   S
    C10    O588      0.99993      .   S
    C279   O588      0.99993      .   S
    C10    O589      1.03001      .   S
    C264   O589      1.03001  1_455   S
    C88    O590      0.55025      .   S
    C198   O590      0.55025      .   S
    C28    O591      0.55033      .   S
    C128   O591      0.55033  1_655   S
    C128   O592      0.77220      .   S
    C127   O592      0.77220      .   S
    C198   O593      0.77221      .   S
    C197   O593      0.77221      .   S
    C239   O594      0.63401      .   S
    C139   O594      0.63401      .   S
    C279   O595      0.63402      .   S
    C209   O595      0.63402      .   S
    C133   O596      0.76858      .   S
    C132   O596      0.76858      .   S
    C133   O597      0.76409      .   S
    C139   O597      0.76409      .   S
    C133   O598      0.77502      .   S
    C134   O598      0.77502      .   S
    C203   O599      0.76857      .   S
    C202   O599      0.76857      .   S
    C203   O600      0.76401      .   S
    C209   O600      0.76401      .   S
    C203   O601      0.77501      .   S
    C204   O601      0.77501      .   S
    C131   O602      0.77318      .   S
    C132   O602      0.77318      .   S
    C131   O603      0.76745      .   S
    C138   O603      0.76745  1_565   S
    C131   O604      0.77282      .   S
    C135   O604      0.77282      .   S
    C201   O605      0.77318      .   S
    C202   O605      0.77318      .   S
    C201   O606      0.76727      .   S
    C208   O606      0.76727      .   S
    C201   O607      0.77296      .   S
    C205   O607      0.77296      .   S
    C132   O608      0.54868      .   S
    C33    O608      0.54868      .   S
    C202   O609      0.54875      .   S
    C93    O609      0.54875      .   S
    C139   O610      0.64263      .   S
    C238   O610      0.64263      .   S
    C209   O611      0.64261      .   S
    C278   O611      0.64261      .   S
    C138   O612      0.62480      .   S
    C237   O612      0.62480      .   S
    C208   O613      0.62483      .   S
    C277   O613      0.62483      .   S
    C238   O614      0.96722      .   S
    C5     O614      0.96722      .   S
    C278   O615      0.96716      .   S
    C11    O615      0.96716      .   S
    C34    O616      0.54946      .   S
    C134   O616      0.54946      .   S
    C94    O617      0.54943      .   S
    C204   O617      0.54943      .   S
    C127   O618      0.77529      .   S
    C134   O618      0.77529      .   S
    C127   O619      0.77059      .   S
    C135   O619      0.77059      .   S
    C127   O620      0.76081      .   S
    C126   O620      0.76081      .   S
    C197   O621      0.77531      .   S
    C204   O621      0.77531      .   S
    C197   O622      0.77060      .   S
    C205   O622      0.77060      .   S
    C197   O623      0.76074      .   S
    C196   O623      0.76074      .   S
    C134   O624      0.55058      .   S
    C35    O624      0.55058      .   S
    C204   O625      0.55056      .   S
    C95    O625      0.55056      .   S
    C135   O626      0.51258      .   S
    C37    O626      0.51258  1_455   S
    C135   O627      0.54893      .   S
    C36    O627      0.54893      .   S
    C205   O628      0.55023      .   S
    C97    O628      0.55023      .   S
    C205   O629      0.54878      .   S
    C96    O629      0.54878      .   S
    C233   O630      0.64613      .   S
    C126   O630      0.64613      .   S
    C273   O631      0.64613      .   S
    C196   O631      0.64613      .   S
