# CIF file generated by openbabel 2.4.90, see http://openbabel.sf.net
data_I
_chemical_name_common ''
_cell_length_a 15.614
_cell_length_b 17.228
_cell_length_c 18.405
_cell_angle_alpha 89.946
_cell_angle_beta 90.001
_cell_angle_gamma 90.006
_space_group_name_H-M_alt 'P 1'
_space_group_name_Hall 'P 1'
loop_
    _symmetry_equiv_pos_as_xyz
    x,y,z
loop_
    _atom_site_label
    _atom_site_type_symbol
    _atom_site_fract_x
    _atom_site_fract_y
    _atom_site_fract_z
    _atom_site_occupancy
    N0      N    0.61971   0.85542   0.36855   1.000
    N1      N    0.88012   0.14450   0.86871   1.000
    N2      N    0.61972   0.64450   0.86875   1.000
    N3      N    0.11971   0.85549   0.13091   1.000
    N4      N    0.38025   0.35549   0.13087   1.000
    N5      N    0.88012   0.35542   0.36853   1.000
    N6      N    0.11971   0.64457   0.63142   1.000
    N7      N    0.38026   0.14457   0.63141   1.000
    Zr8     Zr   0.01885   0.17020   0.58723   1.000
    O9      O    0.12392   0.15999   0.60026   1.000
    O10     O    0.97993   0.22066   0.52051   1.000
    O11     O    0.97485   0.16205   0.66779   1.000
    Zr12    Zr   0.98113   0.67020   0.91282   1.000
    O13     O    0.87607   0.65996   0.89981   1.000
    O14     O    0.02001   0.72068   0.97824   1.000
    O15     O    0.02510   0.66207   0.83229   1.000
    Zr16    Zr   0.43364   0.82351   0.64100   1.000
    O17     O    0.34166   0.77099   0.63820   1.000
    O18     O    0.42036   0.91710   0.64286   1.000
    O19     O    0.48794   0.77101   0.70807   1.000
    O20     O    0.49080   0.83023   0.56226   1.000
    Zr21    Zr   0.06635   0.32352   0.64098   1.000
    O22     O    0.15833   0.27100   0.63816   1.000
    O23     O    0.00914   0.33024   0.56223   1.000
    O24     O    0.01202   0.27102   0.70805   1.000
    O25     O    0.07962   0.41711   0.64286   1.000
    Zr26    Zr   0.48113   0.82977   0.08716   1.000
    O27     O    0.37606   0.84001   0.10009   1.000
    O28     O    0.52001   0.77930   0.02052   1.000
    O29     O    0.52509   0.83792   0.16769   1.000
    Zr30    Zr   0.51884   0.32979   0.41273   1.000
    O31     O    0.62388   0.34000   0.39969   1.000
    O32     O    0.47488   0.33794   0.33208   1.000
    O33     O    0.47997   0.27933   0.47945   1.000
    Zr34    Zr   0.93361   0.82348   0.85894   1.000
    O35     O    0.84164   0.77094   0.86181   1.000
    O36     O    0.92029   0.91708   0.85714   1.000
    O37     O    0.99079   0.83023   0.93755   1.000
    O38     O    0.98791   0.77101   0.79193   1.000
    Zr39    Zr   0.06636   0.17651   0.14100   1.000
    O40     O    0.01203   0.22898   0.20802   1.000
    O41     O    0.00915   0.16976   0.06231   1.000
    O42     O    0.15834   0.22904   0.13806   1.000
    O43     O    0.07965   0.08291   0.14272   1.000
    Zr44    Zr   0.01884   0.32978   0.08715   1.000
    O45     O    0.97484   0.33792   0.16768   1.000
    O46     O    0.97993   0.27931   0.02050   1.000
    O47     O    0.12391   0.34002   0.10007   1.000
    Zr48    Zr   0.51885   0.17021   0.91282   1.000
    O49     O    0.47996   0.22069   0.97823   1.000
    O50     O    0.62388   0.15997   0.89980   1.000
    O51     O    0.47488   0.16207   0.83229   1.000
    Zr52    Zr   0.56637   0.32349   0.85893   1.000
    O53     O    0.57965   0.41709   0.85714   1.000
    O54     O    0.65831   0.27095   0.86179   1.000
    O55     O    0.50919   0.33024   0.93753   1.000
    O56     O    0.51206   0.27102   0.79192   1.000
    Zr57    Zr   0.43361   0.67650   0.14104   1.000
    O58     O    0.34163   0.72903   0.13810   1.000
    O59     O    0.49079   0.66975   0.06235   1.000
    O60     O    0.42032   0.58290   0.14274   1.000
    O61     O    0.48791   0.72897   0.20805   1.000
    Zr62    Zr   0.48113   0.67020   0.58724   1.000
    O63     O    0.37606   0.65998   0.60027   1.000
    O64     O    0.52510   0.66205   0.66781   1.000
    O65     O    0.52001   0.72065   0.52052   1.000
    Zr66    Zr   0.56633   0.17648   0.35897   1.000
    O67     O    0.65828   0.22900   0.36177   1.000
    O68     O    0.50918   0.16976   0.43771   1.000
    O69     O    0.51203   0.22897   0.29180   1.000
    O70     O    0.57962   0.08288   0.35709   1.000
    Zr71    Zr   0.93363   0.67646   0.35899   1.000
    O72     O    0.92032   0.58287   0.35711   1.000
    O73     O    0.99079   0.66975   0.43773   1.000
    O74     O    0.98791   0.72897   0.29183   1.000
    O75     O    0.84165   0.72899   0.36179   1.000
    Zr76    Zr   0.98113   0.82978   0.41274   1.000
    O77     O    0.02001   0.77933   0.47946   1.000
    O78     O    0.02509   0.83794   0.33210   1.000
    O79     O    0.87605   0.83999   0.39971   1.000
loop_
    _geom_bond_atom_site_label_1
    _geom_bond_atom_site_label_2
    _geom_bond_distance
    _geom_bond_site_symmetry_2
    _ccdc_geom_bond_type
    Zr8    O9        1.66738      .   S
    N7     O9        4.05204      .   S
    Zr8    O10       1.62201  1_455   S
    N5     O10       3.95368      .   S
    Zr8    O11       1.64000  1_455   S
    N1     O11       3.99396      .   S
    Zr12   O13       1.66729      .   S
    N2     O13       4.05192      .   S
    Zr12   O14       1.60511  1_655   S
    N3     O14       3.96538  1_554   S
    Zr12   O15       1.63952  1_655   S
    N6     O15       3.99285      .   S
    Zr16   O17       1.69826      .   S
    N6     O17       4.09488      .   S
    Zr16   O18       1.62614      .   S
    N7     O18       3.97387  1_545   S
    Zr16   O19       1.74891      .   S
    N2     O19       4.20926      .   S
    Zr16   O20       1.70586      .   S
    N0     O20       4.11668      .   S
    Zr21   O22       1.69839      .   S
    N7     O22       4.09517      .   S
    Zr21   O23       1.70628      .   S
    N5     O23       4.11753  1_655   S
    Zr21   O24       1.74908      .   S
    N1     O24       4.20985  1_655   S
    Zr21   O25       1.62602      .   S
    N6     O25       3.97356      .   S
    Zr26   O27       1.66717      .   S
    N3     O27       4.05148      .   S
    Zr26   O28       1.62216      .   S
    N2     O28       3.95381  1_556   S
    Zr26   O29       1.63951      .   S
    N0     O29       3.99280      .   S
    Zr30   O31       1.66685      .   S
    N5     O31       4.05044      .   S
    Zr30   O32       1.64134      .   S
    N4     O32       3.99821      .   S
    Zr30   O33       1.62168      .   S
    N7     O33       3.95266      .   S
    Zr34   O35       1.69816      .   S
    N2     O35       4.09458      .   S
    Zr34   O36       1.62622      .   S
    N1     O36       3.97390  1_545   S
    Zr34   O37       1.70416      .   S
    N3     O37       4.11208  1_454   S
    Zr34   O38       1.74906      .   S
    N6     O38       4.20952  1_455   S
    Zr39   O40       1.74943      .   S
    N5     O40       4.21044  1_655   S
    Zr39   O41       1.70565      .   S
    N1     O41       4.11681  1_656   S
    Zr39   O42       1.69822      .   S
    N4     O42       4.09474      .   S
    Zr39   O43       1.62612      .   S
    N3     O43       3.97386  1_565   S
    Zr44   O45       1.63969  1_455   S
    N5     O45       3.99326      .   S
    Zr44   O46       1.62241  1_455   S
    N1     O46       3.95456  1_556   S
    Zr44   O47       1.66706      .   S
    N4     O47       4.05125      .   S
    Zr48   O49       1.60504      .   S
    N4     O49       3.96518  1_554   S
    Zr48   O50       1.66684      .   S
    N1     O50       4.05046      .   S
    Zr48   O51       1.63958      .   S
    N7     O51       3.99303      .   S
    Zr52   O53       1.62608      .   S
    N2     O53       3.97343      .   S
    Zr52   O54       1.69792      .   S
    N1     O54       4.09370      .   S
    Zr52   O55       1.70409      .   S
    N4     O55       4.11187  1_554   S
    Zr52   O56       1.74901      .   S
    N7     O56       4.20941      .   S
    Zr57   O58       1.69846      .   S
    N3     O58       4.09533      .   S
    Zr57   O59       1.70547      .   S
    N2     O59       4.11608  1_556   S
    Zr57   O60       1.62604      .   S
    N4     O60       3.97368      .   S
    Zr57   O61       1.74899      .   S
    N0     O61       4.20934      .   S
    Zr62   O63       1.66740      .   S
    N6     O63       4.05216      .   S
    Zr62   O64       1.63988      .   S
    N2     O64       3.99371      .   S
    Zr62   O65       1.62171      .   S
    N0     O65       3.95274      .   S
    Zr66   O67       1.69777      .   S
    N5     O67       4.09339      .   S
    Zr66   O68       1.70582      .   S
    N7     O68       4.11659      .   S
    Zr66   O69       1.75018      .   S
    N4     O69       4.21255      .   S
    Zr66   O70       1.62614      .   S
    N0     O70       3.97387  1_565   S
    Zr71   O72       1.62610      .   S
    N5     O72       3.97383      .   S
    Zr71   O73       1.70583      .   S
    N6     O73       4.11653  1_455   S
    Zr71   O74       1.74993      .   S
    N3     O74       4.21240  1_455   S
    Zr71   O75       1.69838      .   S
    N0     O75       4.09518      .   S
    Zr76   O77       1.62175  1_655   S
    N6     O77       3.95280      .   S
    Zr76   O78       1.64120  1_655   S
    N3     O78       3.99780      .   S
    Zr76   O79       1.66738      .   S
    N0     O79       4.05206      .   S
