# CIF file generated by openbabel 2.4.90, see http://openbabel.sf.net
data_I
_chemical_name_common ''
_cell_length_a 7.3995
_cell_length_b 12.889
_cell_length_c 20.85
_cell_angle_alpha 90
_cell_angle_beta 90.001
_cell_angle_gamma 90.056
_space_group_name_H-M_alt 'P 1'
_space_group_name_Hall 'P 1'
loop_
    _symmetry_equiv_pos_as_xyz
    x,y,z
loop_
    _atom_site_label
    _atom_site_type_symbol
    _atom_site_fract_x
    _atom_site_fract_y
    _atom_site_fract_z
    _atom_site_occupancy
    Zr0     Zr   0.25824   0.16068   0.25002   1.000
    Zr1     Zr   0.24170   0.66203   0.75001   1.000
    Zr2     Zr   0.74164   0.83942   0.75001   1.000
    Zr3     Zr   0.75832   0.33798   0.25002   1.000
    Zr4     Zr   0.89451   0.14475   0.24999   1.000
    Zr5     Zr   0.60559   0.64571   0.75004   1.000
    Zr6     Zr   0.10555   0.85529   0.75006   1.000
    Zr7     Zr   0.39450   0.35435   0.25005   1.000
    O8      O    0.82642   0.24137   0.25001   1.000
    O9      O    0.32637   0.25752   0.25003   1.000
    O10     O    0.67361   0.74257   0.75002   1.000
    O11     O    0.17363   0.75866   0.75004   1.000
    N12     N    0.99997   0.50002   0.00002   1.000
    O13     O    0.09045   0.55982   0.89690   1.000
    O14     O    0.90951   0.44020   0.10313   1.000
    N15     N    0.49996   0.00002   0.50004   1.000
    O16     O    0.59040   0.94076   0.60315   1.000
    O17     O    0.40944   0.05935   0.39693   1.000
    N18     N    0.99997   0.50003   0.50002   1.000
    O19     O    0.90946   0.44019   0.39691   1.000
    O20     O    0.09051   0.55985   0.60312   1.000
    N21     N    0.49996   0.00002   0.00000   1.000
    O22     O    0.40945   0.05935   0.10311   1.000
    O23     O    0.59045   0.94073   0.89690   1.000
loop_
    _geom_bond_atom_site_label_1
    _geom_bond_atom_site_label_2
    _geom_bond_distance
    _geom_bond_site_symmetry_2
    _ccdc_geom_bond_type
    Zr4    O8        1.34384      .   S
    Zr3    O8        1.34384      .   S
    Zr0    O9        1.34564      .   S
    Zr7    O9        1.34564      .   S
    Zr2    O10       1.34560      .   S
    Zr5    O10       1.34560      .   S
    Zr1    O11       1.34393      .   S
    Zr6    O11       1.34393      .   S
    N12    O13       2.37996  1_654   S
    Zr1    O13       3.51638      .   S
    N12    O14       2.37979      .   S
    Zr3    O14       3.51628      .   S
    N15    O16       2.37775  1_545   S
    Zr2    O16       3.51240      .   S
    N15    O17       2.37830      .   S
    Zr0    O17       3.51326      .   S
    N18    O19       2.37985      .   S
    Zr3    O19       3.51611      .   S
    N18    O20       2.37983  1_655   S
    Zr1    O20       3.51615      .   S
    N21    O22       2.37827      .   S
    Zr0    O22       3.51319      .   S
    N21    O23       2.37796  1_544   S
    Zr2    O23       3.51270      .   S
