# CIF file generated by openbabel 2.4.90, see http://openbabel.sf.net
data_I
_chemical_name_common ''
_cell_length_a 7.3995
_cell_length_b 12.889
_cell_length_c 20.85
_cell_angle_alpha 90
_cell_angle_beta 90.001
_cell_angle_gamma 90.056
_space_group_name_H-M_alt 'P 1'
_space_group_name_Hall 'P 1'
loop_
    _symmetry_equiv_pos_as_xyz
    x,y,z
loop_
    _atom_site_label
    _atom_site_type_symbol
    _atom_site_fract_x
    _atom_site_fract_y
    _atom_site_fract_z
    _atom_site_occupancy
    N0      N    0.99997   0.50002   0.00002   1.000
    N1      N    0.49996   0.00002   0.50004   1.000
    N2      N    0.99997   0.50003   0.50002   1.000
    N3      N    0.49996   0.00002   0.00000   1.000
    Zr4     Zr   0.82642   0.24137   0.25001   1.000
    O5      O    0.86794   0.34078   0.32346   1.000
    O6      O    0.86796   0.34078   0.17657   1.000
    Zr7     Zr   0.32637   0.25752   0.25003   1.000
    O8      O    0.36791   0.15843   0.17657   1.000
    O9      O    0.36790   0.15843   0.32348   1.000
    Zr10    Zr   0.67361   0.74257   0.75002   1.000
    O11     O    0.63203   0.84165   0.82346   1.000
    O12     O    0.63200   0.84166   0.67659   1.000
    Zr13    Zr   0.17363   0.75866   0.75004   1.000
    O14     O    0.13207   0.65926   0.67658   1.000
    O15     O    0.13204   0.65924   0.82347   1.000
loop_
    _geom_bond_atom_site_label_1
    _geom_bond_atom_site_label_2
    _geom_bond_distance
    _geom_bond_site_symmetry_2
    _ccdc_geom_bond_type
    Zr4    O5        2.02012      .   S
    N2     O5        4.32607      .   S
    Zr4    O6        2.01995      .   S
    N0     O6        4.32579      .   S
    Zr7    O8        2.01796      .   S
    N3     O8        4.32215      .   S
    Zr7    O9        2.01777      .   S
    N1     O9        4.32198      .   S
    Zr10   O11       2.01763      .   S
    N3     O11       4.32145  1_544   S
    Zr10   O12       2.01775      .   S
    N1     O12       4.32130  1_545   S
    Zr13   O14       2.02018      .   S
    N2     O14       4.32614  1_655   S
    Zr13   O15       2.01994      .   S
    N0     O15       4.32591  1_654   S
