# CIF file generated by openbabel 2.4.90, see http://openbabel.sf.net
data_I
_chemical_name_common ''
_cell_length_a 13.804
_cell_length_b 13.84
_cell_length_c 13.922
_cell_angle_alpha 108.749
_cell_angle_beta 89.966
_cell_angle_gamma 90.155
_space_group_name_H-M_alt 'P 1'
_space_group_name_Hall 'P 1'
loop_
    _symmetry_equiv_pos_as_xyz
    x,y,z
loop_
    _atom_site_label
    _atom_site_type_symbol
    _atom_site_fract_x
    _atom_site_fract_y
    _atom_site_fract_z
    _atom_site_occupancy
    Zn0     Zn   0.55802   0.08941   0.53688   1.000
    Zn1     Zn   0.94216   0.09007   0.03730   1.000
    Zn2     Zn   0.44196   0.91064   0.46309   1.000
    H3      H    0.88395   0.58368   0.15590   1.000
    H4      H    0.91882   0.72682   0.11296   1.000
    H5      H    0.77178   0.00626   0.26784   1.000
    H6      H    0.68595   0.72803   0.32096   1.000
    H7      H    0.01461   0.29469   0.15535   1.000
    H8      H    0.95509   0.47328   0.22140   1.000
    H9      H    0.66812   0.35832   0.12075   1.000
    H10     H    0.74184   0.18266   0.05379   1.000
    H11     H    0.38590   0.41578   0.34402   1.000
    H12     H    0.42119   0.27208   0.38582   1.000
    H13     H    0.27100   0.99328   0.23269   1.000
    H14     H    0.18553   0.27214   0.18162   1.000
    H15     H    0.51514   0.70685   0.34551   1.000
    H16     H    0.45638   0.52760   0.28035   1.000
    H17     H    0.16912   0.64005   0.38082   1.000
    H18     H    0.24222   0.81661   0.44689   1.000
    H19     H    0.11602   0.41636   0.84402   1.000
    H20     H    0.08114   0.27322   0.88699   1.000
    H21     H    0.22819   0.99378   0.73211   1.000
    H22     H    0.31402   0.27201   0.67900   1.000
    H23     H    0.98536   0.70535   0.84463   1.000
    H24     H    0.04488   0.52676   0.77858   1.000
    H25     H    0.33185   0.64172   0.87922   1.000
    H26     H    0.25813   0.81738   0.94617   1.000
    H27     H    0.61407   0.58427   0.65594   1.000
    H28     H    0.57879   0.72796   0.61415   1.000
    H29     H    0.72897   0.00676   0.76728   1.000
    H30     H    0.81443   0.72791   0.81836   1.000
    H31     H    0.48482   0.29319   0.65440   1.000
    Zn32    Zn   0.05781   0.90998   0.96262   1.000
    H33     H    0.54357   0.47244   0.71960   1.000
    H34     H    0.83084   0.36001   0.61917   1.000
    H35     H    0.75775   0.18344   0.55308   1.000
    C36     C    0.80458   0.71485   0.21626   1.000
    C37     C    0.86326   0.76668   0.16678   1.000
    C38     C    0.85079   0.87102   0.18398   1.000
    C39     C    0.78097   0.92479   0.25350   1.000
    C40     C    0.72218   0.87283   0.30252   1.000
    C41     C    0.73278   0.76771   0.28330   1.000
    C42     C    0.76192   0.53560   0.20933   1.000
    C43     C    0.93887   0.31274   0.14745   1.000
    C44     C    0.90446   0.41226   0.18370   1.000
    C45     C    0.80585   0.43053   0.17324   1.000
    C46     C    0.74539   0.34680   0.12827   1.000
    C47     C    0.78543   0.24980   0.09213   1.000
    C48     C    0.91070   0.92234   0.12394   1.000
    C49     C    0.64517   0.92789   0.37576   1.000
    C50     C    0.30558   0.28467   0.28441   1.000
    C51     C    0.36477   0.23253   0.33279   1.000
    C52     C    0.35165   0.12819   0.31550   1.000
    C53     C    0.28070   0.07475   0.24701   1.000
    C54     C    0.22148   0.12702   0.19897   1.000
    C55     C    0.23273   0.23215   0.21828   1.000
    C56     C    0.26299   0.46394   0.29279   1.000
    C57     C    0.43954   0.68805   0.35349   1.000
    C58     C    0.40551   0.58817   0.31779   1.000
    C59     C    0.30700   0.56916   0.32840   1.000
    C60     C    0.24629   0.65238   0.37320   1.000
    C61     C    0.28595   0.74978   0.40877   1.000
    C62     C    0.41195   0.07676   0.37485   1.000
    C63     C    0.14353   0.07250   0.12631   1.000
    C64     C    0.19538   0.28519   0.78369   1.000
    C65     C    0.13670   0.23336   0.83318   1.000
    C66     C    0.14918   0.12902   0.81598   1.000
    C67     C    0.21899   0.07525   0.74645   1.000
    C68     C    0.27778   0.12721   0.69743   1.000
    C69     C    0.26719   0.23233   0.71658   1.000
    C70     C    0.23805   0.46444   0.79065   1.000
    C71     C    0.06110   0.68731   0.85253   1.000
    C72     C    0.09550   0.58778   0.81627   1.000
    C73     C    0.19411   0.56951   0.82673   1.000
    C74     C    0.25458   0.65324   0.87170   1.000
    C75     C    0.21454   0.75024   0.90780   1.000
    C76     C    0.08926   0.07770   0.87602   1.000
    C77     C    0.35481   0.07215   0.62422   1.000
    C78     C    0.69438   0.71538   0.71557   1.000
    C79     C    0.63521   0.76751   0.66717   1.000
    C80     C    0.64832   0.87185   0.68445   1.000
    C81     C    0.71926   0.92530   0.75290   1.000
    C82     C    0.77849   0.87303   0.80100   1.000
    C83     C    0.76723   0.76790   0.78170   1.000
    C84     C    0.73696   0.53611   0.70723   1.000
    C85     C    0.56043   0.31200   0.64649   1.000
    C86     C    0.59445   0.41188   0.68210   1.000
    C87     C    0.69297   0.43088   0.67150   1.000
    C88     C    0.75367   0.34766   0.62678   1.000
    C89     C    0.71401   0.25027   0.59121   1.000
    C90     C    0.58803   0.92328   0.62510   1.000
    C91     C    0.85643   0.92755   0.87367   1.000
    N92     N    0.82226   0.60955   0.19608   1.000
    N93     N    0.88072   0.23291   0.10126   1.000
    N94     N    0.32368   0.38998   0.30469   1.000
    N95     N    0.38114   0.76740   0.39930   1.000
    N96     N    0.17770   0.39048   0.80387   1.000
    N97     N    0.11925   0.76714   0.89871   1.000
    N98     N    0.67628   0.61007   0.69520   1.000
    N99     N    0.61882   0.23265   0.60061   1.000
    O100    O    0.67950   0.55029   0.24550   1.000
    O101    O    0.97910   0.86995   0.07118   1.000
    O102    O    0.88685   0.01266   0.12906   1.000
    O103    O    0.66115   0.02030   0.42844   1.000
    O104    O    0.56983   0.87587   0.37933   1.000
    O105    O    0.18000   0.44918   0.25000   1.000
    O106    O    0.48145   0.12867   0.42640   1.000
    O107    O    0.38723   0.98674   0.37047   1.000
    O108    O    0.15861   0.98008   0.07324   1.000
    O109    O    0.06858   0.12490   0.12348   1.000
    O110    O    0.32046   0.44974   0.75446   1.000
    O111    O    0.02088   0.13010   0.92880   1.000
    O112    O    0.11311   0.98737   0.87089   1.000
    O113    O    0.33883   0.97974   0.57150   1.000
    O114    O    0.43014   0.12418   0.62062   1.000
    O115    O    0.81995   0.55087   0.74200   1.000
    O116    O    0.51853   0.87137   0.57354   1.000
    O117    O    0.61273   0.01331   0.62950   1.000
    O118    O    0.84136   0.01998   0.92671   1.000
    O119    O    0.93137   0.87515   0.87652   1.000
loop_
    _geom_bond_atom_site_label_1
    _geom_bond_atom_site_label_2
    _geom_bond_distance
    _geom_bond_site_symmetry_2
    _ccdc_geom_bond_type
    Zn1    N93       2.07279      .   S
    Zn1    O109      2.08417  1_655   S
    Zn1    O102      2.05833      .   S
    Zn1    O118      2.06944  1_554   S
    Zn1    O111      2.07420  1_654   S
    H10    C47       1.09030      .   S
    O101   C48       1.27173      .   S
    O101   Zn32      2.07485  1_654   S
    O108   C63       1.27242  1_565   S
    O108   Zn32      2.06976  1_554   S
    C47    N93       1.34988      .   S
    C47    C46       1.38941      .   S
    N93    C43       1.34819      .   S
    H4     C37       1.09080      .   S
    H9     C46       1.08891      .   S
    O109   C63       1.27285      .   S
    C48    O102      1.27323  1_565   S
    C48    C38       1.50491      .   S
    C63    C54       1.50222      .   S
    C46    C45       1.40016      .   S
    C43    H7        1.08939  1_655   S
    C43    C44       1.39071      .   S
    H3     N92       1.01906      .   S
    C37    C38       1.39698      .   S
    C37    C36       1.39964      .   S
    C45    C44       1.40130      .   S
    C45    C42       1.50653      .   S
    H14    C55       1.08407      .   S
    C44    H8        1.09057      .   S
    C38    C39       1.39963      .   S
    N92    C42       1.37549      .   S
    N92    C36       1.41453      .   S
    C54    C55       1.40029      .   S
    C54    C53       1.39781      .   S
    C42    O100      1.23459      .   S
    C36    C41       1.39735      .   S
    C55    C50       1.39790      .   S
    H13    C53       1.08787  1_565   S
    C53    C52       1.39975      .   S
    O105   C56       1.27676      .   S
    C39    H5        1.08785  1_565   S
    C39    C40       1.39756      .   S
    H16    C58       1.09058      .   S
    C41    C40       1.40018      .   S
    C41    H6        1.08499      .   S
    C50    N94       1.41424      .   S
    C50    C51       1.39935      .   S
    C56    N94       1.37518      .   S
    C56    C59       1.50566      .   S
    C40    C49       1.50140      .   S
    N94    H11       1.01890      .   S
    C52    C51       1.39679      .   S
    C52    C62       1.50479      .   S
    C58    C59       1.40112      .   S
    C58    C57       1.39056      .   S
    C59    C60       1.40020      .   S
    C51    H12       1.09080      .   S
    H15    C57       1.08913      .   S
    C57    N95       1.34784      .   S
    O107   C62       1.27337  1_565   S
    O107   Zn2       2.05445      .   S
    C60    H17       1.08885      .   S
    C60    C61       1.38897      .   S
    C62    O106      1.27169      .   S
    C49    O104      1.27325      .   S
    C49    O103      1.27204  1_565   S
    O104   Zn2       2.08531      .   S
    N95    C61       1.34986      .   S
    N95    Zn2       2.06967      .   S
    C61    H18       1.09028      .   S
    O106   Zn0       2.07851      .   S
    O103   Zn0       2.07302      .   S
    Zn2    O113      2.07267      .   S
    Zn2    O116      2.07837      .   S
    Zn0    N99       2.06944      .   S
    Zn0    O114      2.08530      .   S
    Zn0    O117      2.05449      .   S
    H35    C89       1.09027      .   S
    O113   C77       1.27217  1_565   S
    O116   C90       1.27173      .   S
    C89    N99       1.34976      .   S
    C89    C88       1.38896      .   S
    N99    C85       1.34799      .   S
    H28    C79       1.09073      .   S
    H34    C88       1.08884      .   S
    O114   C77       1.27329      .   S
    C77    C68       1.50133      .   S
    C90    O117      1.27336  1_565   S
    C90    C80       1.50462      .   S
    C88    C87       1.40004      .   S
    C85    H31       1.08902      .   S
    C85    C86       1.39051      .   S
    H27    N98       1.01845      .   S
    C79    C80       1.39683      .   S
    C79    C78       1.39937      .   S
    C87    C86       1.40108      .   S
    C87    C84       1.50567      .   S
    H22    C69       1.08423      .   S
    C86    H33       1.09078      .   S
    C80    C81       1.39947      .   S
    N98    C84       1.37556      .   S
    N98    C78       1.41410      .   S
    C68    C69       1.40034      .   S
    C68    C67       1.39756      .   S
    C84    O115      1.23466      .   S
    C78    C83       1.39792      .   S
    C69    C64       1.39793      .   S
    H21    C67       1.08785  1_565   S
    C67    C66       1.39967      .   S
    C81    H29       1.08774  1_565   S
    C81    C82       1.39836      .   S
    O110   C70       1.23463      .   S
    H24    C72       1.09055      .   S
    C83    C82       1.40029      .   S
    C83    H30       1.08404      .   S
    C64    N96       1.41454      .   S
    C64    C65       1.39970      .   S
    C70    N96       1.37543      .   S
    C70    C73       1.50656      .   S
    C82    C91       1.50221      .   S
    N96    H19       1.01886      .   S
    C66    C65       1.39696      .   S
    C66    C76       1.50493      .   S
    C72    C73       1.40132      .   S
    C72    C71       1.39071      .   S
    C73    C74       1.40014      .   S
    C65    H20       1.09073      .   S
    H23    C71       1.08939  1_655   S
    C71    N97       1.34819      .   S
    O112   C76       1.27322  1_565   S
    O112   Zn32      2.05774      .   S
    C74    H25       1.08891      .   S
    C74    C75       1.38939      .   S
    C91    O119      1.27285      .   S
    C91    O118      1.27241  1_565   S
    C76    O111      1.27173      .   S
    O119   Zn32      2.08382  1_655   S
    N97    C75       1.34981      .   S
    N97    Zn32      2.07283      .   S
    C75    H26       1.09041      .   S
    Zn32   Zn1       2.86281  1_466   S
    Zn0    Zn2       2.84436  1_545   S
