# CIF file generated by openbabel 2.4.90, see http://openbabel.sf.net
data_I
_chemical_name_common ''
_cell_length_a 13.804
_cell_length_b 13.84
_cell_length_c 13.922
_cell_angle_alpha 108.749
_cell_angle_beta 89.966
_cell_angle_gamma 90.155
_space_group_name_H-M_alt 'P 1'
_space_group_name_Hall 'P 1'
loop_
    _symmetry_equiv_pos_as_xyz
    x,y,z
loop_
    _atom_site_label
    _atom_site_type_symbol
    _atom_site_fract_x
    _atom_site_fract_y
    _atom_site_fract_z
    _atom_site_occupancy
    N0      N    0.80593   0.64073   0.20000   1.000
    N1      N    0.30644   0.35901   0.30062   1.000
    N2      N    0.19404   0.35931   0.79996   1.000
    N3      N    0.69352   0.64103   0.69907   1.000
    Zr4     Zr   0.49999   0.00003   0.49999   1.000
    O5      O    0.42949   0.79952   0.43295   1.000
    O6      O    0.57048   0.20053   0.56695   1.000
    Zr7     Zr   0.99998   0.00003   0.99996   1.000
    O8      O    0.92933   0.20057   0.06730   1.000
    O9      O    0.07063   0.79948   0.93264   1.000
    O10     O    0.44340   0.09698   0.43745   1.000
    O11     O    0.40906   0.09634   0.58699   1.000
    O12     O    0.59091   0.90371   0.41298   1.000
    O13     O    0.55658   0.90307   0.56245   1.000
    O14     O    0.09080   0.09633   0.08742   1.000
    O15     O    0.05687   0.09719   0.93745   1.000
    O16     O    0.94309   0.90286   0.06249   1.000
    O17     O    0.90917   0.90372   0.91244   1.000
loop_
    _geom_bond_atom_site_label_1
    _geom_bond_atom_site_label_2
    _geom_bond_distance
    _geom_bond_site_symmetry_2
    _ccdc_geom_bond_type
    Zr4    O5        2.80002  1_545   S
    N1     O5        6.01462      .   S
    Zr4    O6        2.79995      .   S
    N3     O6        6.01458      .   S
    Zr7    O8        2.80609  1_556   S
    N0     O8        6.02018      .   S
    Zr7    O9        2.80615  1_645   S
    N2     O9        6.02032      .   S
    Zr4    O10       1.98150      .   S
    N1     O10       4.98365      .   S
    Zr4    O11       1.94644      .   S
    N2     O11       4.89474      .   S
    Zr4    O12       1.94649  1_545   S
    N0     O12       4.89481      .   S
    Zr4    O13       1.98086  1_545   S
    N3     O13       4.98185      .   S
    N1     O14       4.88903      .   S
    Zr7    O14       1.94429  1_656   S
    N2     O15       4.98319      .   S
    Zr7    O15       1.98196  1_655   S
    N0     O16       4.98351      .   S
    Zr7    O16       1.98217  1_546   S
    Zr7    O17       1.94462  1_545   S
    N3     O17       4.89005      .   S
