# CIF file generated by openbabel 2.4.90, see http://openbabel.sf.net
data_I
_chemical_name_common ''
_cell_length_a 13.804
_cell_length_b 13.84
_cell_length_c 13.922
_cell_angle_alpha 108.749
_cell_angle_beta 89.966
_cell_angle_gamma 90.155
_space_group_name_H-M_alt 'P 1'
_space_group_name_Hall 'P 1'
loop_
    _symmetry_equiv_pos_as_xyz
    x,y,z
loop_
    _atom_site_label
    _atom_site_type_symbol
    _atom_site_fract_x
    _atom_site_fract_y
    _atom_site_fract_z
    _atom_site_occupancy
    N0      N    0.80593   0.64073   0.20000   1.000
    N1      N    0.30644   0.35901   0.30062   1.000
    N2      N    0.19404   0.35931   0.79996   1.000
    N3      N    0.69352   0.64103   0.69907   1.000
    Zr4     Zr   0.49999   0.00003   0.49999   1.000
    O5      O    0.42949   0.79952   0.43295   1.000
    O6      O    0.43025   0.07694   0.42934   1.000
    O7      O    0.39610   0.07614   0.57931   1.000
    O8      O    0.54343   0.88302   0.55434   1.000
    O9      O    0.57795   0.88351   0.40529   1.000
    O10     O    0.57048   0.20053   0.56695   1.000
    O11     O    0.45654   0.11703   0.44556   1.000
    O12     O    0.42202   0.11654   0.59467   1.000
    O13     O    0.56972   0.92311   0.57056   1.000
    O14     O    0.60387   0.92391   0.42066   1.000
    Zr15    Zr   0.99998   0.00003   0.99996   1.000
    O16     O    0.07795   0.11664   0.09523   1.000
    O17     O    0.04388   0.11736   0.94573   1.000
    O18     O    0.89631   0.92403   0.92025   1.000
    O19     O    0.92933   0.20057   0.06730   1.000
    O20     O    0.93010   0.92304   0.07077   1.000
    O21     O    0.10366   0.07603   0.07962   1.000
    O22     O    0.07063   0.79948   0.93264   1.000
    O23     O    0.06987   0.07701   0.92916   1.000
    O24     O    0.92202   0.88341   0.90464   1.000
    O25     O    0.95609   0.88269   0.05420   1.000
loop_
    _geom_bond_atom_site_label_1
    _geom_bond_atom_site_label_2
    _geom_bond_distance
    _geom_bond_site_symmetry_2
    _ccdc_geom_bond_type
    Zr4    O5        2.80002  1_545   S
    N1     O5        6.01462      .   S
    Zr4    O6        1.92526      .   S
    N1     O6        5.09021      .   S
    Zr4    O7        1.90895      .   S
    N2     O7        4.98858      .   S
    Zr4    O8        2.08520  1_545   S
    N3     O8        4.89383      .   S
    Zr4    O9        2.03411  1_545   S
    N0     O9        4.82038      .   S
    Zr4    O10       2.79995      .   S
    N3     O10       6.01458      .   S
    Zr4    O11       2.08579      .   S
    N1     O11       4.89569      .   S
    Zr4    O12       2.03407      .   S
    N2     O12       4.82030      .   S
    Zr4    O13       1.92458  1_545   S
    N3     O13       5.08846      .   S
    Zr4    O14       1.90901  1_545   S
    N0     O14       4.98864      .   S
    Zr15   O16       2.03427  1_656   S
    N1     O16       4.81298      .   S
    Zr15   O17       2.08723  1_655   S
    N2     O17       4.89429      .   S
    Zr15   O18       1.90507  1_545   S
    N3     O18       4.98561      .   S
    Zr15   O19       2.80609  1_556   S
    N0     O19       6.02018      .   S
    Zr15   O20       1.92524  1_546   S
    N0     O20       5.09112      .   S
    Zr15   O21       1.90474  1_656   S
    N1     O21       4.98459      .   S
    Zr15   O22       2.80615  1_645   S
    N2     O22       6.02032      .   S
    Zr15   O23       1.92504  1_655   S
    N2     O23       5.09080      .   S
    Zr15   O24       2.03460  1_545   S
    N3     O24       4.81400      .   S
    Zr15   O25       2.08744  1_546   S
    N0     O25       4.89461      .   S
