# CIF file generated by openbabel 2.4.90, see http://openbabel.sf.net
data_I
_chemical_name_common ''
_cell_length_a 13.804
_cell_length_b 13.84
_cell_length_c 13.922
_cell_angle_alpha 108.749
_cell_angle_beta 89.966
_cell_angle_gamma 90.155
_space_group_name_H-M_alt 'P 1'
_space_group_name_Hall 'P 1'
loop_
    _symmetry_equiv_pos_as_xyz
    x,y,z
loop_
    _atom_site_label
    _atom_site_type_symbol
    _atom_site_fract_x
    _atom_site_fract_y
    _atom_site_fract_z
    _atom_site_occupancy
    Zr0     Zr   0.05781   0.90998   0.96262   1.000
    Zr1     Zr   0.55802   0.08941   0.53688   1.000
    Zr2     Zr   0.94216   0.09007   0.03730   1.000
    Zr3     Zr   0.44196   0.91064   0.46309   1.000
    O4      O    0.99998   0.00003   0.99996   1.000
    O5      O    0.49999   0.00003   0.49999   1.000
    N6      N    0.80593   0.64073   0.20000   1.000
    O7      O    0.85868   0.40111   0.13464   1.000
    O8      O    0.91219   0.76535   0.10845   1.000
    O9      O    0.86022   0.84605   0.14159   1.000
    O10     O    0.70776   0.84779   0.34133   1.000
    O11     O    0.65591   0.76699   0.31060   1.000
    N12     N    0.30644   0.35901   0.30062   1.000
    O13     O    0.35900   0.59902   0.36591   1.000
    O14     O    0.41309   0.23403   0.39113   1.000
    O15     O    0.36052   0.15385   0.35870   1.000
    O16     O    0.20733   0.15202   0.15927   1.000
    O17     O    0.15591   0.23325   0.19050   1.000
    N18     N    0.19404   0.35931   0.79996   1.000
    O19     O    0.14128   0.59894   0.86531   1.000
    O20     O    0.08778   0.23470   0.89150   1.000
    O21     O    0.13975   0.15400   0.85836   1.000
    O22     O    0.29221   0.15225   0.65863   1.000
    O23     O    0.34406   0.23305   0.68935   1.000
    N24     N    0.69352   0.64103   0.69907   1.000
    O25     O    0.64097   0.40103   0.63391   1.000
    O26     O    0.58688   0.76602   0.60869   1.000
    O27     O    0.63945   0.84620   0.64113   1.000
    O28     O    0.79264   0.84803   0.84054   1.000
    O29     O    0.84406   0.76680   0.80932   1.000
loop_
    _geom_bond_atom_site_label_1
    _geom_bond_atom_site_label_2
    _geom_bond_distance
    _geom_bond_site_symmetry_2
    _ccdc_geom_bond_type
    Zr0    O4        1.43141  1_465   S
    Zr2    O4        1.43141  1_554   S
    Zr1    O5        1.42218      .   S
    Zr3    O5        1.42218  1_565   S
    N6     O7        3.22935      .   S
    Zr2    O7        4.23908      .   S
    N6     O8        2.85448      .   S
    Zr0    O8        3.84130  1_456   S
    N6     O9        3.28191      .   S
    Zr2    O9        4.23358  1_545   S
    N6     O10       3.21149      .   S
    Zr1    O10       4.12857  1_545   S
    N6     O11       2.82832      .   S
    Zr3    O11       3.80700      .   S
    N12    O13       3.22998      .   S
    Zr3    O13       4.23873      .   S
    N12    O14       2.85737      .   S
    Zr1    O14       3.84226      .   S
    N12    O15       3.28050      .   S
    Zr3    O15       4.22766  1_565   S
    N12    O16       3.21076      .   S
    Zr0    O16       4.12920  1_566   S
    N12    O17       2.82254      .   S
    Zr2    O17       3.80011  1_655   S
    N18    O19       3.22943      .   S
    Zr0    O19       4.23921      .   S
    N18    O20       2.85436      .   S
    Zr2    O20       3.84089  1_654   S
    N18    O21       3.28180      .   S
    Zr0    O21       4.23318  1_565   S
    N18    O22       3.21149      .   S
    Zr3    O22       4.12841  1_565   S
    N18    O23       2.82828      .   S
    Zr1    O23       3.80697      .   S
    N24    O25       3.23002      .   S
    Zr1    O25       4.23864      .   S
    N24    O26       2.85611      .   S
    Zr3    O26       3.84087      .   S
    N24    O27       3.27948      .   S
    Zr1    O27       4.22652  1_545   S
    N24    O28       3.21141      .   S
    Zr2    O28       4.12986  1_544   S
    N24    O29       2.82319      .   S
    Zr0    O29       3.80075  1_455   S
