# CIF file generated by openbabel 2.4.90, see http://openbabel.sf.net
data_I
_chemical_name_common ''
_cell_length_a 13.687
_cell_length_b 17.852
_cell_length_c 21.787
_cell_angle_alpha 89.91
_cell_angle_beta 89.977
_cell_angle_gamma 89.998
_space_group_name_H-M_alt 'P 1'
_space_group_name_Hall 'P 1'
loop_
    _symmetry_equiv_pos_as_xyz
    x,y,z
loop_
    _atom_site_label
    _atom_site_type_symbol
    _atom_site_fract_x
    _atom_site_fract_y
    _atom_site_fract_z
    _atom_site_occupancy
    H0      H    0.04338   0.92897   0.17374   1.000
    H1      H    0.97632   0.91404   0.10443   1.000
    H2      H    0.00932   0.06627   0.16684   1.000
    H3      H    0.95691   0.05420   0.09322   1.000
    H4      H    0.34269   0.06058   0.15622   1.000
    H5      H    0.40165   0.06453   0.08267   1.000
    H6      H    0.46216   0.93326   0.09720   1.000
    H7      H    0.40158   0.92969   0.17006   1.000
    H8      H    0.26192   0.96834   0.91478   1.000
    H9      H    0.13094   0.97120   0.91558   1.000
    H10     H    0.25770   0.83064   0.93215   1.000
    H11     H    0.12645   0.83235   0.92558   1.000
    H12     H    0.38393   0.64458   0.08443   1.000
    H13     H    0.32715   0.70301   0.14025   1.000
    H14     H    0.43901   0.75805   0.02565   1.000
    H15     H    0.38007   0.81682   0.07901   1.000
    H16     H    0.95407   0.77720   0.03620   1.000
    H17     H    0.01990   0.80079   0.10397   1.000
    H18     H    0.98223   0.67387   0.14902   1.000
    H19     H    0.91686   0.65009   0.08179   1.000
    H20     H    0.09875   0.58334   0.90992   1.000
    H21     H    0.22869   0.58138   0.90827   1.000
    H22     H    0.10322   0.70824   0.85404   1.000
    H23     H    0.23181   0.70616   0.85568   1.000
    H24     H    0.95673   0.07489   0.67169   1.000
    H25     H    0.02310   0.08717   0.60169   1.000
    H26     H    0.98953   0.93717   0.66790   1.000
    H27     H    0.04197   0.94668   0.59400   1.000
    H28     H    0.65766   0.94011   0.65700   1.000
    H29     H    0.59691   0.93710   0.58413   1.000
    H30     H    0.53809   0.06872   0.59979   1.000
    H31     H    0.59970   0.07084   0.67228   1.000
    H32     H    0.73253   0.03474   0.41521   1.000
    H33     H    0.86336   0.02939   0.41474   1.000
    H34     H    0.74078   0.17210   0.43136   1.000
    H35     H    0.87203   0.16836   0.42530   1.000
    H36     H    0.61637   0.35669   0.58561   1.000
    H37     H    0.67337   0.29760   0.64101   1.000
    H38     H    0.56185   0.24390   0.52606   1.000
    H39     H    0.62067   0.18447   0.57912   1.000
    H40     H    0.04701   0.22575   0.53643   1.000
    H41     H    0.98135   0.20080   0.60405   1.000
    H42     H    0.01674   0.32769   0.64967   1.000
    H43     H    0.08212   0.35272   0.58267   1.000
    H44     H    0.90060   0.41880   0.41020   1.000
    H45     H    0.77063   0.42042   0.40888   1.000
    H46     H    0.89633   0.29401   0.35447   1.000
    H47     H    0.76770   0.29610   0.35607   1.000
    H48     H    0.45681   0.42817   0.17282   1.000
    H49     H    0.52347   0.41453   0.10316   1.000
    H50     H    0.49027   0.56579   0.16712   1.000
    H51     H    0.54297   0.55475   0.09348   1.000
    H52     H    0.15770   0.56143   0.15666   1.000
    H53     H    0.09812   0.56529   0.08336   1.000
    H54     H    0.03755   0.43403   0.09832   1.000
    H55     H    0.09854   0.43066   0.17090   1.000
    H56     H    0.23541   0.46775   0.91506   1.000
    H57     H    0.36627   0.47269   0.91510   1.000
    H58     H    0.24332   0.33021   0.93216   1.000
    H59     H    0.37444   0.33381   0.92532   1.000
    H60     H    0.11803   0.14542   0.08722   1.000
    H61     H    0.17487   0.20664   0.14090   1.000
    H62     H    0.06026   0.25592   0.02569   1.000
    H63     H    0.11858   0.31745   0.07716   1.000
    H64     H    0.54763   0.27552   0.03428   1.000
    H65     H    0.48225   0.30182   0.10154   1.000
    H66     H    0.51683   0.17517   0.14869   1.000
    H67     H    0.58297   0.14950   0.08225   1.000
    H68     H    0.39826   0.08206   0.90971   1.000
    H69     H    0.26827   0.08184   0.90853   1.000
    H70     H    0.39592   0.20744   0.85426   1.000
    H71     H    0.26730   0.20645   0.85588   1.000
    H72     H    0.54289   0.57440   0.67205   1.000
    H73     H    0.47667   0.58763   0.60215   1.000
    H74     H    0.50981   0.43669   0.66706   1.000
    H75     H    0.45712   0.44740   0.59330   1.000
    H76     H    0.84209   0.44057   0.65710   1.000
    H77     H    0.90251   0.43701   0.58406   1.000
    H78     H    0.96130   0.56890   0.59904   1.000
    H79     H    0.90044   0.57117   0.67183   1.000
    H80     H    0.76643   0.53448   0.41500   1.000
    H81     H    0.63554   0.52988   0.41485   1.000
    H82     H    0.75944   0.67189   0.43150   1.000
    H83     H    0.62812   0.66882   0.42565   1.000
    H84     H    0.88341   0.85805   0.58477   1.000
    H85     H    0.82635   0.79965   0.64066   1.000
    H86     H    0.93782   0.74448   0.52609   1.000
    H87     H    0.87902   0.68578   0.57973   1.000
    C88     C    0.43880   0.80515   0.61150   1.000
    C89     C    0.34468   0.77370   0.63877   1.000
    C90     C    0.66517   0.88437   0.40890   1.000
    C91     C    0.66675   0.83212   0.35368   1.000
    H92     H    0.45325   0.72600   0.53603   1.000
    H93     H    0.51896   0.70121   0.60364   1.000
    H94     H    0.48291   0.82785   0.64930   1.000
    H95     H    0.41771   0.85294   0.58236   1.000
    H96     H    0.59914   0.91892   0.40949   1.000
    H97     H    0.72912   0.92074   0.40801   1.000
    H98     H    0.60366   0.79416   0.35370   1.000
    H99     H    0.73226   0.79635   0.35523   1.000
    C100    C    0.19415   0.99072   0.12381   1.000
    C101    C    0.28516   0.97572   0.02610   1.000
    C102    C    0.10915   0.94514   0.03083   1.000
    C103    C    0.00000   0.95325   0.12935   1.000
    C104    C    0.96829   0.02695   0.13811   1.000
    C105    C    0.86779   0.01349   0.16520   1.000
    C106    C    0.36653   0.02788   0.11651   1.000
    C107    C    0.43792   0.96655   0.13650   1.000
    C108    C    0.52550   0.00000   0.16765   1.000
    C109    C    0.19586   0.94176   0.93262   1.000
    C110    C    0.19462   0.85990   0.91202   1.000
    C111    C    0.20578   0.85831   0.84247   1.000
    C112    C    0.25834   0.66082   0.99920   1.000
    C113    C    0.08097   0.68585   0.99195   1.000
    C114    C    0.17506   0.73396   0.08066   1.000
    C115    C    0.34850   0.69871   0.09200   1.000
    C116    C    0.41724   0.76253   0.07411   1.000
    C117    C    0.51079   0.76629   0.11220   1.000
    C118    C    0.99708   0.75478   0.07432   1.000
    C119    C    0.93851   0.69733   0.11133   1.000
    O120    O    0.99601   0.32182   0.46414   1.000
    O121    O    0.82133   0.23126   0.62886   1.000
    O122    O    0.47840   0.28512   0.65368   1.000
    O123    O    0.43195   0.18160   0.59992   1.000
    O124    O    0.82017   0.44310   0.29288   1.000
    C125    C    0.84475   0.72929   0.13853   1.000
    C126    C    0.16481   0.61782   0.90923   1.000
    C127    C    0.16637   0.67034   0.85407   1.000
    C128    C    0.16961   0.62939   0.79299   1.000
    C129    C    0.80526   0.01119   0.62361   1.000
    C130    C    0.71239   0.02556   0.52663   1.000
    C131    C    0.88827   0.05699   0.52991   1.000
    C132    C    0.97664   0.04902   0.62783   1.000
    C133    C    0.03080   0.97543   0.63826   1.000
    C134    C    0.13148   0.98925   0.66504   1.000
    C135    C    0.63303   0.97329   0.61776   1.000
    C136    C    0.56254   0.03469   0.63867   1.000
    C137    C    0.47505   0.00041   0.67007   1.000
    C138    C    0.79983   0.06006   0.43235   1.000
    C139    C    0.80334   0.14186   0.41159   1.000
    C140    C    0.79339   0.14368   0.34198   1.000
    C141    C    0.74177   0.34122   0.50014   1.000
    C142    C    0.91886   0.31522   0.49186   1.000
    C143    C    0.82556   0.26807   0.58142   1.000
    C144    C    0.65196   0.30253   0.59281   1.000
    C145    C    0.58349   0.23881   0.57451   1.000
    C146    C    0.48982   0.23472   0.61255   1.000
    C147    C    0.00000   0.24734   0.57463   1.000
    C148    C    0.06105   0.30498   0.61197   1.000
    C149    C    0.15514   0.27363   0.63922   1.000
    C150    C    0.83468   0.38415   0.40972   1.000
    C151    C    0.83318   0.33190   0.35450   1.000
    C152    C    0.83008   0.37336   0.29360   1.000
    C153    C    0.30569   0.49093   0.12381   1.000
    C154    C    0.21398   0.47663   0.02638   1.000
    C155    C    0.38978   0.44535   0.03049   1.000
    C156    C    0.47705   0.45325   0.12867   1.000
    C157    C    0.53149   0.52688   0.13811   1.000
    C158    C    0.63195   0.51333   0.16524   1.000
    C159    C    0.13346   0.52867   0.11709   1.000
    C160    C    0.06210   0.46749   0.13744   1.000
    C161    C    0.97478   0.50203   0.16878   1.000
    C162    C    0.30240   0.44223   0.93253   1.000
    C163    C    0.30559   0.36042   0.91190   1.000
    C164    C    0.29422   0.35855   0.84238   1.000
    C165    C    0.24141   0.16037   0.00000   1.000
    C166    C    0.41854   0.18583   0.99100   1.000
    C167    C    0.32575   0.23566   0.07960   1.000
    C168    C    0.15267   0.20018   0.09297   1.000
    C169    C    0.08249   0.26256   0.07390   1.000
    C170    C    0.98915   0.26663   0.11234   1.000
    C171    C    0.50413   0.25469   0.07280   1.000
    C172    C    0.56146   0.19756   0.11094   1.000
    C173    C    0.65518   0.22939   0.13830   1.000
    C174    C    0.33297   0.11742   0.90930   1.000
    C175    C    0.33224   0.17008   0.85423   1.000
    C176    C    0.32850   0.12925   0.79313   1.000
    C177    C    0.69437   0.51130   0.62364   1.000
    C178    C    0.78706   0.52559   0.52655   1.000
    C179    C    0.61125   0.55708   0.53001   1.000
    C180    C    0.52298   0.54908   0.62799   1.000
    C181    C    0.46858   0.47544   0.63783   1.000
    C182    C    0.36809   0.48920   0.66495   1.000
    C183    C    0.86661   0.47346   0.61760   1.000
    C184    C    0.93727   0.53496   0.63810   1.000
    C185    C    0.02513   0.50069   0.66900   1.000
    C186    C    0.69945   0.56014   0.43237   1.000
    C187    C    0.69658   0.64204   0.41175   1.000
    C188    C    0.70650   0.64383   0.34210   1.000
    C189    C    0.75806   0.84196   0.49958   1.000
    C190    C    0.58112   0.81560   0.49137   1.000
    C191    C    0.67442   0.76893   0.58100   1.000
    C192    C    0.84780   0.80398   0.59242   1.000
    C193    C    0.91624   0.74003   0.57460   1.000
    C194    C    0.00996   0.73631   0.61259   1.000
    C195    C    0.49657   0.74769   0.57423   1.000
    C196    C    0.66979   0.87324   0.29253   1.000
    N197    N    0.11270   0.96250   0.09333   1.000
    N198    N    0.27847   0.99692   0.08771   1.000
    N199    N    0.19794   0.95143   0.99961   1.000
    N200    N    0.25723   0.69844   0.05561   1.000
    N201    N    0.08782   0.72265   0.04858   1.000
    N202    N    0.16919   0.65871   0.96814   1.000
    N203    N    0.88627   0.03911   0.59239   1.000
    N204    N    0.72046   0.00430   0.58811   1.000
    N205    N    0.79894   0.05032   0.49937   1.000
    N206    N    0.74316   0.30331   0.55638   1.000
    N207    N    0.91254   0.27904   0.54888   1.000
    N208    N    0.83062   0.34307   0.46862   1.000
    N209    N    0.38696   0.46296   0.09295   1.000
    N210    N    0.22117   0.49753   0.08794   1.000
    N211    N    0.30084   0.45195   0.99950   1.000
    N212    N    0.24333   0.19928   0.05591   1.000
    N213    N    0.41282   0.22287   0.04762   1.000
    N214    N    0.32983   0.15833   0.96821   1.000
    N215    N    0.61336   0.53933   0.59251   1.000
    N216    N    0.77910   0.50438   0.58805   1.000
    N217    N    0.70047   0.55028   0.49937   1.000
    N218    N    0.75666   0.80435   0.55596   1.000
    N219    N    0.58748   0.77961   0.54846   1.000
    N220    N    0.66934   0.84336   0.46790   1.000
    O221    O    0.19199   0.00000   0.17787   1.000
    O222    O    0.36217   0.97980   0.99767   1.000
    O223    O    0.03412   0.92495   0.00519   1.000
    O224    O    0.82919   0.95034   0.15741   1.000
    O225    O    0.82815   0.06832   0.19461   1.000
    O226    O    0.51262   0.04748   0.21074   1.000
    O227    O    0.61270   0.98435   0.14952   1.000
    O228    O    0.28735   0.88095   0.82136   1.000
    O229    O    0.13278   0.83520   0.81150   1.000
    O230    O    0.33288   0.63154   0.97916   1.000
    O231    O    0.00332   0.67840   0.96501   1.000
    O232    O    0.17952   0.77121   0.12777   1.000
    O233    O    0.52101   0.71666   0.15430   1.000
    O234    O    0.56980   0.81847   0.09889   1.000
    O235    O    0.17980   0.55971   0.79192   1.000
    O236    O    0.16285   0.67162   0.74420   1.000
    O237    O    0.80398   0.69033   0.18126   1.000
    O238    O    0.81278   0.79041   0.11723   1.000
    O239    O    0.80816   0.99349   0.67780   1.000
    O240    O    0.63482   0.02125   0.49878   1.000
    O241    O    0.96245   0.07799   0.50369   1.000
    O242    O    0.17039   0.05209   0.65586   1.000
    O243    O    0.17078   0.93507   0.69551   1.000
    O244    O    0.48765   0.95277   0.71243   1.000
    O245    O    0.38772   0.01821   0.65280   1.000
    O246    O    0.71207   0.12178   0.32012   1.000
    O247    O    0.86730   0.16649   0.31167   1.000
    O248    O    0.66723   0.37093   0.48039   1.000
    O249    O    0.83684   0.33148   0.24474   1.000
    O250    O    0.19584   0.31301   0.68164   1.000
    O251    O    0.18752   0.21254   0.61835   1.000
    O252    O    0.30811   0.50886   0.17795   1.000
    O253    O    0.13689   0.48121   0.99804   1.000
    O254    O    0.46440   0.42474   0.00400   1.000
    O255    O    0.67063   0.45018   0.15736   1.000
    O256    O    0.67150   0.56812   0.19469   1.000
    O257    O    0.98760   0.54985   0.21088   1.000
    O258    O    0.88736   0.48412   0.15184   1.000
    O259    O    0.21268   0.38119   0.82127   1.000
    O260    O    0.36712   0.33512   0.81149   1.000
    O261    O    0.16668   0.13023   0.98135   1.000
    O262    O    0.49548   0.17841   0.96319   1.000
    O263    O    0.32153   0.27469   0.12578   1.000
    O264    O    0.97896   0.21718   0.15450   1.000
    O265    O    0.93011   0.31879   0.09890   1.000
    O266    O    0.31660   0.05973   0.79198   1.000
    O267    O    0.33677   0.17141   0.74439   1.000
    O268    O    0.69569   0.19037   0.18115   1.000
    O269    O    0.68734   0.29052   0.11723   1.000
    O270    O    0.69158   0.49356   0.67785   1.000
    O271    O    0.86458   0.52130   0.49864   1.000
    O272    O    0.53707   0.57807   0.50382   1.000
    O273    O    0.32920   0.55210   0.65606   1.000
    O274    O    0.32894   0.43492   0.69543   1.000
    O275    O    0.01273   0.45346   0.71185   1.000
    O276    O    0.11221   0.51809   0.65109   1.000
    O277    O    0.78796   0.62204   0.32035   1.000
    O278    O    0.63259   0.66636   0.31176   1.000
    O279    O    0.83259   0.87180   0.47993   1.000
    O280    O    0.50387   0.82206   0.46380   1.000
    O281    O    0.67870   0.73224   0.62855   1.000
    O282    O    0.02127   0.78694   0.65354   1.000
    O283    O    0.06800   0.68324   0.60009   1.000
    O284    O    0.67990   0.94293   0.29122   1.000
    O285    O    0.66286   0.83109   0.24384   1.000
    O286    O    0.30364   0.81333   0.68089   1.000
    O287    O    0.31264   0.71237   0.61817   1.000
loop_
    _geom_bond_atom_site_label_1
    _geom_bond_atom_site_label_2
    _geom_bond_distance
    _geom_bond_site_symmetry_2
    _ccdc_geom_bond_type
    C165   N212      1.40338      .   S
    C165   N214      1.39464  1_554   S
    C165   O261      1.22552  1_554   S
    O254   C155      1.22953      .   S
    O223   C102      1.22367      .   S
    H14    C116      1.09996      .   S
    H62    C169      1.10021      .   S
    C101   N198      1.39815      .   S
    C101   O222      1.22446  1_554   S
    C101   N199      1.39560  1_554   S
    C154   N210      1.39621      .   S
    C154   O253      1.22538  1_554   S
    C154   N211      1.39660  1_554   S
    C155   N209      1.39765      .   S
    C155   N211      1.39716  1_554   S
    C102   N197      1.39786      .   S
    C102   N199      1.39693  1_554   S
    H64    C171      1.09344      .   S
    H16    C118      1.09353      .   S
    N213   C171      1.47897      .   S
    N213   C167      1.39913      .   S
    N213   C166      1.40267  1_554   S
    N201   C118      1.47871  1_455   S
    N201   C114      1.39869      .   S
    N201   C113      1.40188  1_554   S
    N200   C114      1.40193      .   S
    N200   C115      1.47978      .   S
    N200   C112      1.40149  1_554   S
    N212   C167      1.40093      .   S
    N212   C168      1.48023      .   S
    C171   H65       1.09138      .   S
    C171   C172      1.53108      .   S
    C169   H63       1.09981      .   S
    C169   C168      1.52783      .   S
    C169   C170      1.52911  1_455   S
    C116   H15       1.09999      .   S
    C116   C115      1.52753      .   S
    C116   C117      1.52771      .   S
    C118   H17       1.09150  1_655   S
    C118   C119      1.53022      .   S
    C167   O263      1.22611      .   S
    C114   O232      1.22534      .   S
    H19    C119      1.10233      .   S
    H67    C172      1.10228      .   S
    H5     C106      1.09583      .   S
    H53    C159      1.09562      .   S
    H12    C115      1.09397      .   S
    H60    C168      1.09388      .   S
    N198   C106      1.46754  1_565   S
    N198   C100      1.40070      .   S
    N210   C159      1.46761      .   S
    N210   C153      1.40109      .   S
    C115   H13       1.09379      .   S
    N209   C153      1.39253      .   S
    N209   C156      1.46857      .   S
    C168   H61       1.09395      .   S
    H3     C104      1.10275      .   S
    N197   C100      1.39255      .   S
    N197   C103      1.73814      .   S
    H51    C157      1.10279      .   S
    H6     C107      1.09445      .   S
    H54    C160      1.09452      .   S
    O234   C117      1.26622      .   S
    O265   C170      1.26690      .   S
    H49    C156      1.09150      .   S
    H1     C103      0.94396  1_655   S
    C172   C173      1.52494      .   S
    C172   H66       1.09902      .   S
    C119   C125      1.52444      .   S
    C119   H18       1.09868      .   S
    C117   O233      1.28186      .   S
    C170   O264      1.28062      .   S
    C106   C107      1.53018  1_545   S
    C106   H4        1.09413      .   S
    C159   C160      1.53022      .   S
    C159   H52       1.09418      .   S
    O238   C125      1.26325      .   S
    O269   C173      1.26249      .   S
    C153   O252      1.22313      .   S
    C100   O221      1.19002  1_565   S
    C156   C157      1.52517      .   S
    C156   H48       1.09592      .   S
    C103   C104      1.39875  1_465   S
    C103   H0        1.21446      .   S
    C107   C108      1.50206  1_565   S
    C107   H7        1.10143      .   S
    C160   C161      1.50851  1_455   S
    C160   H55       1.10053      .   S
    C157   C158      1.51614      .   S
    C157   H50       1.09610      .   S
    C104   C105      1.51554      .   S
    C104   H2        1.09622  1_655   S
    C173   O268      1.28944      .   S
    C125   O237      1.28823      .   S
    O227   C108      1.28785  1_565   S
    O258   C161      1.29251      .   S
    O255   C158      1.25745      .   S
    O224   C105      1.25687  1_565   S
    C105   O225      1.29029      .   S
    C158   O256      1.28988      .   S
    C108   O226      1.27795      .   S
    C161   O257      1.26626      .   S
    O285   C196      1.30507      .   S
    O249   C152      1.30504      .   S
    O284   C196      1.25198      .   S
    C196   C91       1.52070      .   S
    O124   C152      1.25233      .   S
    C152   C151      1.51888      .   S
    O247   C140      1.27433      .   S
    O278   C188      1.27348      .   S
    O246   C140      1.27257      .   S
    O277   C188      1.27245      .   S
    C140   C139      1.52305      .   S
    C188   C187      1.52375      .   S
    C91    H98       1.09763      .   S
    C91    H99       1.10126      .   S
    C91    C90       1.52365      .   S
    H46    C151      1.09760      .   S
    C151   H47       1.10123      .   S
    C151   C150      1.52359      .   S
    H97    C90       1.08999      .   S
    H45    C150      1.08991      .   S
    C90    H96       1.09418      .   S
    C90    N220      1.47948      .   S
    C150   H44       1.09402      .   S
    C150   N208      1.47808      .   S
    C139   H35       1.09430      .   S
    C139   H34       1.10018      .   S
    C139   C138      1.52889      .   S
    C187   H83       1.09479      .   S
    C187   H82       1.10010      .   S
    C187   C186      1.52934      .   S
    H33    C138      1.09709      .   S
    H81    C186      1.09709      .   S
    H80    C186      1.09256      .   S
    H32    C138      1.09221      .   S
    C138   N205      1.47025      .   S
    C186   N217      1.47010      .   S
    O280   C190      1.22163      .   S
    O120   C142      1.22184      .   S
    N220   C190      1.40133      .   S
    N220   C189      1.39720      .   S
    N208   C142      1.40065      .   S
    N208   C141      1.39663      .   S
    O279   C189      1.22735      .   S
    O248   C141      1.22754      .   S
    C190   N219      1.40186      .   S
    C142   N207      1.40189      .   S
    O271   C178      1.22522      .   S
    O240   C130      1.22549      .   S
    N205   C130      1.39646      .   S
    N205   C131      1.39734      .   S
    N217   C178      1.39608      .   S
    N217   C179      1.39690      .   S
    C189   N218      1.39909      .   S
    C141   N206      1.39900      .   S
    O241   C131      1.22343      .   S
    O272   C179      1.22339      .   S
    H38    C145      1.10009      .   S
    H86    C193      1.10001      .   S
    C178   N216      1.39600      .   S
    C130   N204      1.39603      .   S
    C131   N203      1.39794      .   S
    C179   N215      1.39790      .   S
    H92    C195      1.09343      .   S
    H40    C147      1.12060      .   S
    N219   C195      1.47876      .   S
    N219   C191      1.39823      .   S
    N207   C147      1.43787  1_655   S
    N207   C143      1.39902      .   S
    N218   C191      1.40104      .   S
    N218   C192      1.47914      .   S
    N206   C143      1.40161      .   S
    N206   C144      1.47900      .   S
    C195   H93       1.09153      .   S
    C195   C88       1.52937      .   S
    C145   H39       1.09991      .   S
    C145   C144      1.52738      .   S
    C145   C146      1.52810      .   S
    C193   H87       1.09995      .   S
    C193   C192      1.52734      .   S
    C193   C194      1.52822  1_655   S
    C147   H41       1.07905  1_455   S
    C147   C148      1.55622      .   S
    C191   O281      1.22619      .   S
    C143   O121      1.22527      .   S
    H95    C88       1.10118      .   S
    H43    C148      1.10240      .   S
    H77    C183      1.09549      .   S
    H29    C135      1.09566      .   S
    H84    C192      1.09372      .   S
    H36    C144      1.09377      .   S
    N216   C183      1.46737      .   S
    N216   C177      1.40026      .   S
    N204   C135      1.46755  1_545   S
    N204   C129      1.40058      .   S
    N203   C129      1.39241      .   S
    N203   C132      1.46923      .   S
    C192   H85       1.09376      .   S
    N215   C177      1.39261      .   S
    N215   C180      1.46890      .   S
    C144   H37       1.09376      .   S
    H75    C181      1.10365      .   S
    H27    C133      1.10363      .   S
    H78    C184      1.09432      .   S
    H30    C136      1.09426      .   S
    O123   C146      1.26616      .   S
    O283   C194      1.26617      .   S
    H25    C132      1.09141  1_455   S
    H73    C180      1.09150      .   S
    C88    C89       1.52527      .   S
    C88    H94       1.09927      .   S
    C148   C149      1.52436      .   S
    C148   H42       1.09884      .   S
    C146   O122      1.28040      .   S
    C194   O282      1.28051      .   S
    C183   C184      1.53045      .   S
    C183   H76       1.09375      .   S
    C135   C136      1.53001  1_565   S
    C135   H28       1.09271      .   S
    O287   C89       1.26261      .   S
    O251   C149      1.26246      .   S
    C129   O239      1.22235  1_545   S
    C177   O270      1.22288      .   S
    C132   C133      1.52517  1_645   S
    C132   H24       1.09632      .   S
    C180   C181      1.52570      .   S
    C180   H72       1.09618      .   S
    C181   C182      1.51686      .   S
    C181   H74       1.09608      .   S
    C184   C185      1.50758  1_655   S
    C184   H79       1.10141      .   S
    C133   C134      1.51706      .   S
    C133   H26       1.09585  1_455   S
    C136   C137      1.50810      .   S
    C136   H31       1.10150      .   S
    C89    O286      1.28835      .   S
    C149   O250      1.28891      .   S
    O276   C185      1.29166      .   S
    O245   C137      1.29282      .   S
    O242   C134      1.25738  1_545   S
    O273   C182      1.25742      .   S
    C182   O274      1.29024      .   S
    C134   O243      1.28993      .   S
    C185   O275      1.26843      .   S
    C137   O244      1.26587  1_545   S
    O236   C128      1.30551      .   S
    O267   C176      1.30541      .   S
    O235   C128      1.25192      .   S
    O266   C176      1.25203      .   S
    C128   C127      1.51992      .   S
    C176   C175      1.51954      .   S
    O260   C164      1.27428      .   S
    O229   C111      1.27483      .   S
    O259   C164      1.27284      .   S
    O228   C111      1.27293      .   S
    C164   C163      1.52309      .   S
    C111   C110      1.52321      .   S
    H22    C127      1.09761      .   S
    C127   H23       1.10119      .   S
    C127   C126      1.52323      .   S
    C175   H70       1.09752      .   S
    C175   H71       1.10126      .   S
    C175   C174      1.52310      .   S
    H21    C126      1.08986      .   S
    H69    C174      1.08998      .   S
    C126   H20       1.09395      .   S
    C126   N202      1.47880      .   S
    C174   H68       1.09409      .   S
    C174   N214      1.47833      .   S
    C163   H59       1.09494      .   S
    C163   H58       1.10043      .   S
    C163   C162      1.52939      .   S
    C110   H11       1.09500      .   S
    C110   H10       1.10012      .   S
    C110   C109      1.52955      .   S
    H8     C109      1.09222      .   S
    H56    C162      1.09222      .   S
    H57    C162      1.09695      .   S
    H9     C109      1.09680      .   S
    C162   N211      1.46978      .   S
    C109   N199      1.47023      .   S
    O262   C166      1.22198      .   S
    O231   C113      1.22160      .   S
    N202   C113      1.40080      .   S
    N202   C112      1.39609      .   S
    N214   C166      1.40106      .   S
    O230   C112      1.22684      .   S
