# CIF file generated by openbabel 2.4.90, see http://openbabel.sf.net
data_I
_chemical_name_common ''
_cell_length_a 13.687
_cell_length_b 17.852
_cell_length_c 21.787
_cell_angle_alpha 89.91
_cell_angle_beta 89.977
_cell_angle_gamma 89.998
_space_group_name_H-M_alt 'P 1'
_space_group_name_Hall 'P 1'
loop_
    _symmetry_equiv_pos_as_xyz
    x,y,z
loop_
    _atom_site_label
    _atom_site_type_symbol
    _atom_site_fract_x
    _atom_site_fract_y
    _atom_site_fract_z
    _atom_site_occupancy
    N0      N    0.19728   0.96378   0.06000   1.000
    N1      N    0.17272   0.70052   0.01919   1.000
    N2      N    0.32697   0.20074   0.01902   1.000
    N3      N    0.67250   0.80201   0.51924   1.000
    N4      N    0.82728   0.30142   0.51971   1.000
    N5      N    0.80087   0.03782   0.56020   1.000
    N6      N    0.69878   0.53793   0.56006   1.000
    N7      N    0.30174   0.46446   0.06012   1.000
    Zr8     Zr   0.35211   0.30146   0.71472   1.000
    O9      O    0.43588   0.37726   0.67364   1.000
    O10     O    0.48669   0.29940   0.65834   1.000
    O11     O    0.34139   0.34642   0.81317   1.000
    O12     O    0.34390   0.26002   0.79450   1.000
    O13     O    0.20137   0.30289   0.66183   1.000
    Zr14    Zr   0.69727   0.87356   0.14849   1.000
    O15     O    0.55020   0.82342   0.10997   1.000
    O16     O    0.68678   0.85037   0.25310   1.000
    O17     O    0.83057   0.81991   0.11226   1.000
    O18     O    0.83876   0.90571   0.12748   1.000
    O19     O    0.56170   0.90997   0.12650   1.000
    Zr20    Zr   0.80282   0.37349   0.14920   1.000
    O21     O    0.66103   0.40582   0.12795   1.000
    O22     O    0.93812   0.41006   0.12726   1.000
    O23     O    0.94977   0.32346   0.11037   1.000
    O24     O    0.66942   0.31993   0.11266   1.000
    O25     O    0.81319   0.35022   0.25377   1.000
    Zr26    Zr   0.14768   0.80182   0.71464   1.000
    O27     O    0.01308   0.80001   0.65815   1.000
    O28     O    0.29838   0.80331   0.66157   1.000
    O29     O    0.06387   0.87748   0.67364   1.000
    O30     O    0.15584   0.76022   0.79447   1.000
    O31     O    0.15822   0.84648   0.81309   1.000
    Zr32    Zr   0.82343   0.55883   0.23526   1.000
    O33     O    0.67402   0.53640   0.18640   1.000
    O34     O    0.78783   0.56151   0.32710   1.000
    O35     O    0.82398   0.48001   0.31358   1.000
    Zr36    Zr   0.67597   0.05892   0.23460   1.000
    O37     O    0.67559   0.98019   0.31284   1.000
    O38     O    0.71171   0.06150   0.32669   1.000
    O39     O    0.82532   0.03631   0.18595   1.000
    Zr40    Zr   0.19685   0.62877   0.64912   1.000
    O41     O    0.04966   0.67889   0.61052   1.000
    O42     O    0.33024   0.68253   0.61278   1.000
    O43     O    0.06175   0.59222   0.62710   1.000
    O44     O    0.33888   0.59647   0.62772   1.000
    O45     O    0.18657   0.65206   0.75352   1.000
    Zr46    Zr   0.85185   0.20114   0.21502   1.000
    O47     O    0.84383   0.24250   0.29491   1.000
    O48     O    0.84104   0.15598   0.31340   1.000
    O49     O    0.70111   0.19969   0.16179   1.000
    O50     O    0.98652   0.20304   0.15846   1.000
    O51     O    0.93524   0.12519   0.17371   1.000
    Zr52    Zr   0.64785   0.70091   0.21490   1.000
    O53     O    0.51321   0.70278   0.15840   1.000
    O54     O    0.65588   0.74246   0.29460   1.000
    O55     O    0.65867   0.65584   0.31330   1.000
    O56     O    0.56428   0.62520   0.17368   1.000
    O57     O    0.79858   0.69949   0.16177   1.000
    Zr58    Zr   0.32303   0.94338   0.73579   1.000
    O59     O    0.32321   0.02226   0.81362   1.000
    O60     O    0.17346   0.96595   0.68686   1.000
    O61     O    0.28713   0.94067   0.82754   1.000
    Zr62    Zr   0.30271   0.12855   0.64930   1.000
    O63     O    0.16071   0.09631   0.62785   1.000
    O64     O    0.16945   0.18227   0.61303   1.000
    O65     O    0.45000   0.17840   0.61073   1.000
    O66     O    0.31303   0.15196   0.75362   1.000
    O67     O    0.43787   0.09208   0.62746   1.000
    Zr68    Zr   0.17653   0.44341   0.73548   1.000
    O69     O    0.32614   0.46598   0.68662   1.000
    O70     O    0.17599   0.52222   0.81346   1.000
    O71     O    0.21235   0.44089   0.82736   1.000
    O72     O    0.95726   0.53001   0.18474   1.000
    O73     O    0.45682   0.97225   0.68525   1.000
    O74     O    0.04284   0.47233   0.68487   1.000
    O75     O    0.54213   0.02976   0.18414   1.000
loop_
    _geom_bond_atom_site_label_1
    _geom_bond_atom_site_label_2
    _geom_bond_distance
    _geom_bond_site_symmetry_2
    _ccdc_geom_bond_type
    Zr8    O9        1.98550      .   S
    N6     O9        5.22208      .   S
    Zr8    O10       2.21393      .   S
    N4     O10       5.55361      .   S
    Zr8    O11       2.29590      .   S
    N7     O11       5.80661  1_554   S
    Zr8    O12       1.89133      .   S
    N2     O12       5.00840  1_554   S
    Zr8    O13       2.36366      .   S
    N4     O13       5.98477  1_655   S
    Zr14   O15       2.35837      .   S
    N1     O15       5.95323      .   S
    Zr14   O16       2.32011      .   S
    N3     O16       5.86416      .   S
    Zr14   O17       2.20689      .   S
    N1     O17       5.53072  1_455   S
    Zr14   O18       2.07068      .   S
    N0     O18       5.22531  1_455   S
    Zr14   O19       2.02352      .   S
    N0     O19       5.28223      .   S
    Zr20   O21       2.07696      .   S
    N7     O21       5.24053      .   S
    Zr20   O22       2.02050      .   S
    N7     O22       5.27661  1_455   S
    Zr20   O23       2.35782      .   S
    N2     O23       5.95137  1_455   S
    Zr20   O24       2.21025      .   S
    N2     O24       5.53903      .   S
    Zr20   O25       2.31959      .   S
    N4     O25       5.86109      .   S
    Zr26   O27       2.21619      .   S
    N3     O27       5.55903  1_655   S
    Zr26   O28       2.36430      .   S
    N3     O28       5.98533      .   S
    Zr26   O29       1.98368      .   S
    N5     O29       5.21948  1_645   S
    Zr26   O30       1.89350      .   S
    N1     O30       5.01438  1_554   S
    Zr26   O31       2.29405      .   S
    N0     O31       5.80066  1_554   S
    Zr32   O33       2.34065      .   S
    N7     O33       5.93336      .   S
    Zr32   O34       2.05975      .   S
    N6     O34       5.23576      .   S
    Zr32   O35       2.20991      .   S
    N4     O35       5.50380      .   S
    Zr36   O37       2.20751  1_545   S
    N3     O37       5.50419      .   S
    Zr36   O38       2.06593      .   S
    N5     O38       5.24875      .   S
    Zr36   O39       2.33761      .   S
    N0     O39       5.92657  1_465   S
    Zr40   O41       2.35915      .   S
    N3     O41       5.95219  1_655   S
    Zr40   O42       2.20849      .   S
    N3     O42       5.53422      .   S
    Zr40   O43       2.01909      .   S
    N6     O43       5.26924  1_655   S
    Zr40   O44       2.08048      .   S
    N6     O44       5.24681      .   S
    Zr40   O45       2.31719      .   S
    N1     O45       5.85675  1_554   S
    Zr46   O47       1.89490      .   S
    N4     O47       5.01613      .   S
    Zr46   O48       2.29348      .   S
    N5     O48       5.79891      .   S
    Zr46   O49       2.36737      .   S
    N2     O49       5.99257      .   S
    Zr46   O50       2.21706      .   S
    N2     O50       5.56167  1_455   S
    Zr46   O51       1.98835      .   S
    N0     O51       5.22671  1_465   S
    Zr52   O53       2.21675      .   S
    N1     O53       5.56148      .   S
    Zr52   O54       1.89257      .   S
    N3     O54       5.01517      .   S
    Zr52   O55       2.29342      .   S
    N6     O55       5.79682      .   S
    Zr52   O56       1.98654      .   S
    N7     O56       5.22467      .   S
    Zr52   O57       2.36543      .   S
    N1     O57       5.98829  1_455   S
    Zr58   O59       2.20594  1_565   S
    N2     O59       5.49779  1_554   S
    Zr58   O60       2.34313      .   S
    N5     O60       5.93857  1_645   S
    Zr58   O61       2.05876      .   S
    N0     O61       5.22833  1_554   S
    Zr62   O63       2.08056      .   S
    N5     O63       5.24685  1_655   S
    Zr62   O64       2.20659      .   S
    N4     O64       5.53044  1_655   S
    Zr62   O65       2.35775      .   S
    N4     O65       5.94964      .   S
    Zr62   O66       2.31585      .   S
    N2     O66       5.85216  1_554   S
    Zr62   O67       2.01821      .   S
    N5     O67       5.26956      .   S
    Zr68   O69       2.34218      .   S
    N6     O69       5.93658      .   S
    Zr68   O70       2.20770      .   S
    N1     O70       5.50165  1_554   S
    Zr68   O71       2.06162      .   S
    N7     O71       5.23456  1_554   S
    Zr32   O72       2.19817      .   S
    N7     O72       5.56507  1_455   S
    N5     O73       5.56297  1_545   S
    Zr58   O73       2.19734      .   S
    N6     O74       5.56251  1_655   S
    Zr68   O74       2.19786      .   S
    Zr36   O75       2.19966      .   S
    N0     O75       5.56789  1_565   S
