# CIF file generated by openbabel 2.4.90, see http://openbabel.sf.net
data_I
_chemical_name_common ''
_cell_length_a 13.687
_cell_length_b 17.852
_cell_length_c 21.787
_cell_angle_alpha 89.91
_cell_angle_beta 89.977
_cell_angle_gamma 89.998
_space_group_name_H-M_alt 'P 1'
_space_group_name_Hall 'P 1'
loop_
    _symmetry_equiv_pos_as_xyz
    x,y,z
loop_
    _atom_site_label
    _atom_site_type_symbol
    _atom_site_fract_x
    _atom_site_fract_y
    _atom_site_fract_z
    _atom_site_occupancy
    Zr0     Zr   0.69727   0.87356   0.14849   1.000
    Zr1     Zr   0.67597   0.05892   0.23460   1.000
    Zr2     Zr   0.85185   0.20114   0.21502   1.000
    Zr3     Zr   0.30271   0.12855   0.64930   1.000
    Zr4     Zr   0.32303   0.94338   0.73579   1.000
    Zr5     Zr   0.14768   0.80182   0.71464   1.000
    Zr6     Zr   0.80282   0.37349   0.14920   1.000
    Zr7     Zr   0.82343   0.55883   0.23526   1.000
    Zr8     Zr   0.64785   0.70091   0.21490   1.000
    Zr9     Zr   0.19685   0.62877   0.64912   1.000
    Zr10    Zr   0.17653   0.44341   0.73548   1.000
    Zr11    Zr   0.35211   0.30146   0.71472   1.000
    N12     N    0.19728   0.96378   0.06000   1.000
    O13     O    0.98025   0.93786   0.10648   1.000
    O14     O    0.97467   0.01370   0.13730   1.000
    O15     O    0.01864   0.04925   0.13241   1.000
    O16     O    0.39578   0.00849   0.14134   1.000
    O17     O    0.42613   0.94637   0.10450   1.000
    O18     O    0.42081   0.99271   0.12603   1.000
    O19     O    0.25123   0.93797   0.91929   1.000
    O20     O    0.16875   0.89114   0.91154   1.000
    N21     N    0.17272   0.70052   0.01919   1.000
    O22     O    0.37857   0.70465   0.10190   1.000
    O23     O    0.40313   0.77327   0.07144   1.000
    O24     O    0.17544   0.60104   0.89145   1.000
    O25     O    0.17628   0.67536   0.85793   1.000
    O26     O    0.16399   0.71862   0.87431   1.000
    O27     O    0.94931   0.69807   0.10864   1.000
    O28     O    0.96387   0.76625   0.07603   1.000
    N29     N    0.32697   0.20074   0.01902   1.000
    O30     O    0.12119   0.20495   0.10189   1.000
    O31     O    0.09672   0.27344   0.07154   1.000
    O32     O    0.32339   0.10115   0.89145   1.000
    O33     O    0.32335   0.17536   0.85793   1.000
    O34     O    0.33570   0.21859   0.87429   1.000
    O35     O    0.55037   0.19825   0.10855   1.000
    O36     O    0.53602   0.26637   0.07612   1.000
    N37     N    0.67250   0.80201   0.51924   1.000
    O38     O    0.87849   0.79820   0.60166   1.000
    O39     O    0.90246   0.72901   0.57192   1.000
    O40     O    0.67522   0.90147   0.39107   1.000
    O41     O    0.67628   0.82717   0.35770   1.000
    O42     O    0.66392   0.78401   0.37430   1.000
    O43     O    0.44908   0.80480   0.60850   1.000
    O44     O    0.46362   0.73629   0.57644   1.000
    N45     N    0.82728   0.30142   0.51971   1.000
    O46     O    0.62126   0.29735   0.60196   1.000
    O47     O    0.59730   0.22825   0.57216   1.000
    O48     O    0.82454   0.40119   0.39189   1.000
    O49     O    0.82355   0.32695   0.35834   1.000
    O50     O    0.83581   0.28386   0.37480   1.000
    O51     O    0.05062   0.30433   0.60895   1.000
    O52     O    0.03619   0.23598   0.57677   1.000
    N53     N    0.80087   0.03782   0.56020   1.000
    O54     O    0.01871   0.06407   0.60639   1.000
    O55     O    0.02389   0.98852   0.63793   1.000
    O56     O    0.98005   0.95313   0.63264   1.000
    O57     O    0.60311   0.99295   0.64216   1.000
    O58     O    0.57304   0.05560   0.60563   1.000
    O59     O    0.57812   0.00931   0.62725   1.000
    O60     O    0.74745   0.06409   0.41878   1.000
    O61     O    0.83022   0.11082   0.41177   1.000
    N62     N    0.69878   0.53793   0.56006   1.000
    O63     O    0.47576   0.48855   0.63776   1.000
    O64     O    0.51965   0.45306   0.63257   1.000
    O65     O    0.89670   0.49318   0.64186   1.000
    O66     O    0.92665   0.55568   0.60508   1.000
    O67     O    0.92157   0.50934   0.62667   1.000
    O68     O    0.75224   0.56418   0.41893   1.000
    O69     O    0.66950   0.61078   0.41170   1.000
    O70     O    0.48090   0.56418   0.60633   1.000
    N71     N    0.30174   0.46446   0.06012   1.000
    O72     O    0.51923   0.43815   0.10670   1.000
    O73     O    0.52460   0.51397   0.13755   1.000
    O74     O    0.48071   0.54949   0.13246   1.000
    O75     O    0.10363   0.50940   0.14159   1.000
    O76     O    0.07341   0.44663   0.10532   1.000
    O77     O    0.07857   0.49297   0.12683   1.000
    O78     O    0.24817   0.43838   0.91925   1.000
    O79     O    0.33068   0.39138   0.91161   1.000
loop_
    _geom_bond_atom_site_label_1
    _geom_bond_atom_site_label_2
    _geom_bond_distance
    _geom_bond_site_symmetry_2
    _ccdc_geom_bond_type
    N12    O13       3.17152  1_455   S
    Zr0    O13       4.14136      .   S
    N12    O14       3.59365  1_465   S
    Zr1    O14       4.67522      .   S
    N12    O15       3.28623  1_565   S
    Zr2    O15       3.97670  1_655   S
    N12    O16       3.34178  1_565   S
    Zr1    O16       4.43367      .   S
    N12    O17       3.29389      .   S
    Zr0    O17       4.04704      .   S
    N12    O18       3.42087      .   S
    Zr1    O18       4.38229  1_545   S
    N12    O19       3.18733  1_554   S
    Zr4    O19       4.11752      .   S
    N12    O20       3.50869  1_554   S
    Zr5    O20       4.58810      .   S
    N21    O22       3.34591      .   S
    Zr8    O22       4.43351      .   S
    N21    O23       3.59660      .   S
    Zr0    O23       4.71674      .   S
    N21    O24       3.30408  1_554   S
    Zr10   O24       4.41540      .   S
    N21    O25       3.54312  1_554   S
    Zr9    O25       4.63438      .   S
    N21    O26       3.17491  1_554   S
    Zr5    O26       3.78699      .   S
    N21    O27       3.62548  1_455   S
    Zr8    O27       4.73085      .   S
    N21    O28       3.32906  1_455   S
    Zr0    O28       4.41378      .   S
    N29    O30       3.34581      .   S
    Zr2    O30       4.43413  1_655   S
    N29    O31       3.59534      .   S
    Zr6    O31       4.71565  1_655   S
    N29    O32       3.30209  1_554   S
    Zr4    O32       4.41188  1_565   S
    N29    O33       3.53985  1_554   S
    Zr3    O33       4.63171      .   S
    N29    O34       3.17108  1_554   S
    Zr11   O34       3.78266      .   S
    N29    O35       3.62780      .   S
    Zr2    O35       4.73475      .   S
    N29    O36       3.33395      .   S
    Zr6    O36       4.42051      .   S
    N37    O38       3.34397      .   S
    Zr5    O38       4.43238  1_455   S
    N37    O39       3.59456      .   S
    Zr9    O39       4.71830  1_455   S
    N37    O40       3.30680      .   S
    Zr1    O40       4.41501  1_545   S
    N37    O41       3.54758      .   S
    Zr0    O41       4.64022      .   S
    N37    O42       3.17671      .   S
    Zr8    O42       3.78514      .   S
    N37    O43       3.62369      .   S
    Zr5    O43       4.72860      .   S
    N37    O44       3.33106      .   S
    Zr9    O44       4.41699      .   S
    N45    O46       3.34098      .   S
    Zr11   O46       4.42785      .   S
    N45    O47       3.59339      .   S
    Zr3    O47       4.71549      .   S
    N45    O48       3.30358      .   S
    Zr7    O48       4.41983      .   S
    N45    O49       3.54489      .   S
    Zr6    O49       4.63918      .   S
    N45    O50       3.17540      .   S
    Zr2    O50       3.78980      .   S
    N45    O51       3.62390  1_655   S
    Zr11   O51       4.72733      .   S
    N45    O52       3.32935  1_655   S
    Zr3    O52       4.41317      .   S
    N53    O54       3.18210  1_655   S
    Zr3    O54       4.16112      .   S
    N53    O55       3.59981  1_645   S
    Zr4    O55       4.68625      .   S
    N53    O56       3.28421  1_545   S
    Zr5    O56       3.96737  1_455   S
    N53    O57       3.33892  1_545   S
    Zr4    O57       4.43031      .   S
    N53    O58       3.28671      .   S
    Zr3    O58       4.03642      .   S
    N53    O59       3.41789      .   S
    Zr4    O59       4.37635  1_565   S
    N53    O60       3.20083      .   S
    Zr1    O60       4.13186      .   S
    N53    O61       3.50754      .   S
    Zr2    O61       4.58697      .   S
    N62    O63       3.59884      .   S
    Zr10   O63       4.68435      .   S
    N62    O64       3.28505      .   S
    Zr11   O64       3.97099      .   S
    N62    O65       3.33953      .   S
    Zr10   O65       4.42933  1_455   S
    N62    O66       3.28540      .   S
    Zr9    O66       4.03817  1_455   S
    N62    O67       3.41566      .   S
    Zr10   O67       4.37949  1_455   S
    N62    O68       3.19420      .   S
    Zr7    O68       4.11950      .   S
    N62    O69       3.50550      .   S
    Zr8    O69       4.58685      .   S
    N62    O70       3.18234      .   S
    Zr9    O70       4.16095      .   S
    N71    O72       3.18008      .   S
    Zr6    O72       4.15392      .   S
    N71    O73       3.59727      .   S
    Zr7    O73       4.68131      .   S
    N71    O74       3.28616      .   S
    Zr8    O74       3.97309      .   S
    N71    O75       3.33881      .   S
    Zr7    O75       4.43284  1_655   S
    N71    O76       3.29148      .   S
    Zr6    O76       4.04100  1_655   S
    N71    O77       3.42064      .   S
    Zr7    O77       4.37712  1_655   S
    N71    O78       3.19067  1_554   S
    Zr10   O78       4.12325      .   S
    N71    O79       3.51282  1_554   S
    Zr11   O79       4.59180      .   S
