# CIF file generated by openbabel 2.4.90, see http://openbabel.sf.net
data_I
_chemical_name_common ''
_cell_length_a 18.942
_cell_length_b 18.96
_cell_length_c 18.965
_cell_angle_alpha 59.983
_cell_angle_beta 60.023
_cell_angle_gamma 60.017
_space_group_name_H-M_alt 'P 1'
_space_group_name_Hall 'P 1'
loop_
    _symmetry_equiv_pos_as_xyz
    x,y,z
loop_
    _atom_site_label
    _atom_site_type_symbol
    _atom_site_fract_x
    _atom_site_fract_y
    _atom_site_fract_z
    _atom_site_occupancy
    Zn0     Zn   0.06762   0.50020   0.93240   1.000
    Zn1     Zn   0.49976   0.93252   0.49999   1.000
    Zn2     Zn   0.93237   0.50002   0.06750   1.000
    Zn3     Zn   0.49990   0.49989   0.93245   1.000
    Zn4     Zn   0.06759   0.93236   0.49993   1.000
    Zn5     Zn   0.50023   0.50000   0.06739   1.000
    Zn6     Zn   0.93239   0.06760   0.49986   1.000
    Zn7     Zn   0.49990   0.93234   0.06750   1.000
    Zn8     Zn   0.06760   0.50006   0.50007   1.000
    Zn9     Zn   0.49999   0.06762   0.93239   1.000
    Zn10    Zn   0.93236   0.49986   0.50000   1.000
    Zn11    Zn   0.50015   0.06758   0.49990   1.000
loop_
    _geom_bond_atom_site_label_1
    _geom_bond_atom_site_label_2
    _geom_bond_distance
    _geom_bond_site_symmetry_2
    _ccdc_geom_bond_type
    Zn11   Zn1       2.56357  1_545   S
    Zn0    Zn2       2.56292  1_456   S
    Zn3    Zn5       2.56322  1_556   S
    Zn4    Zn6       2.56316  1_465   S
    Zn7    Zn9       2.56305  1_564   S
    Zn8    Zn10      2.56421  1_455   S
