# CIF file generated by openbabel 2.4.90, see http://openbabel.sf.net
data_I
_chemical_name_common ''
_cell_length_a 18.942
_cell_length_b 18.96
_cell_length_c 18.965
_cell_angle_alpha 59.983
_cell_angle_beta 60.023
_cell_angle_gamma 60.017
_space_group_name_H-M_alt 'P 1'
_space_group_name_Hall 'P 1'
loop_
    _symmetry_equiv_pos_as_xyz
    x,y,z
loop_
    _atom_site_label
    _atom_site_type_symbol
    _atom_site_fract_x
    _atom_site_fract_y
    _atom_site_fract_z
    _atom_site_occupancy
    C0      C    0.50015   0.06758   0.49990   1.000
    C1      C    0.06762   0.50020   0.93240   1.000
    C2      C    0.49976   0.93252   0.49999   1.000
    C3      C    0.93237   0.50002   0.06750   1.000
    C4      C    0.49990   0.49989   0.93245   1.000
    C5      C    0.06759   0.93236   0.49993   1.000
    C6      C    0.50023   0.50000   0.06739   1.000
    C7      C    0.93239   0.06760   0.49986   1.000
    C8      C    0.49990   0.93234   0.06750   1.000
    C9      C    0.06760   0.50006   0.50007   1.000
    C10     C    0.49999   0.06762   0.93239   1.000
    C11     C    0.93236   0.49986   0.50000   1.000
    C12     C    0.76662   0.99349   0.47287   1.000
    C13     C    0.99380   0.76662   0.76688   1.000
    C14     C    0.47362   0.76671   0.76612   1.000
    C15     C    0.76692   0.47330   0.99330   1.000
    C16     C    0.76650   0.47314   0.76659   1.000
    C17     C    0.99390   0.76656   0.47289   1.000
    C18     C    0.47356   0.76621   0.99340   1.000
    C19     C    0.76698   0.99401   0.76649   1.000
    C20     C    0.76662   0.76714   0.99380   1.000
    C21     C    0.99375   0.47376   0.76603   1.000
    C22     C    0.47392   0.99345   0.76648   1.000
    C23     C    0.76682   0.76646   0.47259   1.000
    C24     C    0.00599   0.23368   0.52707   1.000
    C25     C    0.23335   0.00606   0.23292   1.000
    C26     C    0.23328   0.52680   0.23379   1.000
    C27     C    0.52643   0.23323   0.00648   1.000
    C28     C    0.52637   0.23370   0.23320   1.000
    C29     C    0.23301   0.00650   0.52702   1.000
    C30     C    0.23348   0.52671   0.00673   1.000
    C31     C    0.00616   0.23308   0.23342   1.000
    C32     C    0.23293   0.23340   0.00608   1.000
    C33     C    0.52602   0.00649   0.23391   1.000
    C34     C    0.00633   0.52625   0.23367   1.000
    C35     C    0.23333   0.23322   0.52739   1.000
    C36     C    0.66489   0.92912   0.47614   1.000
    C37     C    0.75748   0.88516   0.47159   1.000
    C38     C    0.92925   0.66504   0.92963   1.000
    C39     C    0.88539   0.75763   0.88556   1.000
    C40     C    0.47715   0.92949   0.66455   1.000
    C41     C    0.47269   0.88529   0.75704   1.000
    C42     C    0.92968   0.47705   0.92866   1.000
    C43     C    0.88555   0.47243   0.88483   1.000
    C44     C    0.66492   0.47647   0.92937   1.000
    C45     C    0.75745   0.47212   0.88515   1.000
    C46     C    0.92935   0.92917   0.47654   1.000
    C47     C    0.88543   0.88522   0.47180   1.000
    C48     C    0.47694   0.66467   0.92886   1.000
    C49     C    0.47253   0.75718   0.88491   1.000
    C50     C    0.92960   0.92921   0.66476   1.000
    C51     C    0.88559   0.88547   0.75740   1.000
    C52     C    0.66494   0.92990   0.92911   1.000
    C53     C    0.75754   0.88580   0.88531   1.000
    C54     C    0.92922   0.47687   0.66460   1.000
    C55     C    0.88529   0.47235   0.75708   1.000
    C56     C    0.47702   0.92883   0.92939   1.000
    C57     C    0.47263   0.88499   0.88515   1.000
    C58     C    0.92966   0.66476   0.47622   1.000
    C59     C    0.88556   0.75728   0.47162   1.000
    C60     C    0.07053   0.33517   0.52381   1.000
    C61     C    0.11449   0.24267   0.52836   1.000
    C62     C    0.33496   0.07070   0.07020   1.000
    C63     C    0.24238   0.11456   0.11420   1.000
    C64     C    0.07051   0.52306   0.33545   1.000
    C65     C    0.11461   0.52761   0.24297   1.000
    C66     C    0.52290   0.07050   0.07110   1.000
    C67     C    0.52732   0.11465   0.11504   1.000
    C68     C    0.52309   0.33524   0.07039   1.000
    C69     C    0.52746   0.24274   0.11467   1.000
    C70     C    0.07019   0.07120   0.52300   1.000
    C71     C    0.11430   0.11493   0.52810   1.000
    C72     C    0.33520   0.52344   0.07113   1.000
    C73     C    0.24266   0.52784   0.11510   1.000
    C74     C    0.07082   0.07036   0.33506   1.000
    C75     C    0.11459   0.11438   0.24245   1.000
    C76     C    0.07024   0.33514   0.07080   1.000
    C77     C    0.11432   0.24251   0.11458   1.000
    C78     C    0.52281   0.07103   0.33534   1.000
    C79     C    0.52728   0.11494   0.24285   1.000
    C80     C    0.07080   0.52309   0.07090   1.000
    C81     C    0.11474   0.52761   0.11499   1.000
    C82     C    0.33501   0.07050   0.52378   1.000
    C83     C    0.24242   0.11464   0.52834   1.000
    C84     C    0.80019   0.92769   0.47165   1.000
    C85     C    0.92800   0.80026   0.80032   1.000
    C86     C    0.47252   0.80008   0.79969   1.000
    C87     C    0.80034   0.47218   0.92749   1.000
    C88     C    0.80008   0.47209   0.79997   1.000
    C89     C    0.92804   0.80005   0.47166   1.000
    C90     C    0.47247   0.79980   0.92755   1.000
    C91     C    0.80041   0.92816   0.80008   1.000
    C92     C    0.80020   0.80056   0.92797   1.000
    C93     C    0.92792   0.47243   0.79965   1.000
    C94     C    0.47266   0.92764   0.79990   1.000
    C95     C    0.80031   0.79998   0.47140   1.000
    C96     C    0.07185   0.20008   0.52829   1.000
    C97     C    0.19976   0.07192   0.19952   1.000
    C98     C    0.19983   0.52787   0.20027   1.000
    C99     C    0.52751   0.19984   0.07234   1.000
    C100    C    0.52746   0.20013   0.19990   1.000
    C101    C    0.19954   0.07229   0.52826   1.000
    C102    C    0.19995   0.52783   0.07254   1.000
    C103    C    0.07195   0.19962   0.19980   1.000
    C104    C    0.19950   0.19981   0.07191   1.000
    C105    C    0.52730   0.07230   0.20020   1.000
    C106    C    0.07216   0.52757   0.20019   1.000
    C107    C    0.19974   0.19981   0.52848   1.000
    C108    C    0.62867   0.00603   0.47866   1.000
    C109    C    0.00617   0.62872   0.88651   1.000
    C110    C    0.47944   0.88651   0.62827   1.000
    C111    C    0.88657   0.47953   0.00555   1.000
    C112    C    0.62846   0.47892   0.88640   1.000
    C113    C    0.00629   0.88599   0.47918   1.000
    C114    C    0.47956   0.62835   0.00574   1.000
    C115    C    0.88647   0.00612   0.62836   1.000
    C116    C    0.62853   0.88677   0.00597   1.000
    C117    C    0.00616   0.47950   0.62834   1.000
    C118    C    0.47958   0.00576   0.88636   1.000
    C119    C    0.88655   0.62838   0.47877   1.000
    C120    C    0.99358   0.37142   0.52121   1.000
    C121    C    0.37129   0.99371   0.11326   1.000
    C122    C    0.11359   0.52067   0.37170   1.000
    C123    C    0.52045   0.11362   0.99419   1.000
    C124    C    0.52076   0.37161   0.11331   1.000
    C125    C    0.11331   0.99433   0.52065   1.000
    C126    C    0.37145   0.52085   0.99428   1.000
    C127    C    0.99394   0.11352   0.37141   1.000
    C128    C    0.11338   0.37161   0.99398   1.000
    C129    C    0.52015   0.99414   0.37171   1.000
    C130    C    0.99386   0.52048   0.11398   1.000
    C131    C    0.37151   0.11352   0.52119   1.000
    C132    C    0.37114   0.99362   0.52122   1.000
    C133    C    0.99335   0.37134   0.11400   1.000
    C134    C    0.52047   0.11415   0.37149   1.000
    C135    C    0.11401   0.52065   0.99400   1.000
    C136    C    0.37153   0.52098   0.11421   1.000
    C137    C    0.99330   0.11452   0.52057   1.000
    C138    C    0.52050   0.37140   0.99351   1.000
    C139    C    0.11409   0.99347   0.37132   1.000
    C140    C    0.37124   0.11399   0.99337   1.000
    C141    C    0.99361   0.52036   0.37165   1.000
    C142    C    0.52024   0.99362   0.11436   1.000
    C143    C    0.11373   0.37148   0.52123   1.000
    C144    C    0.00657   0.62857   0.47890   1.000
    C145    C    0.62874   0.00683   0.88587   1.000
    C146    C    0.88605   0.47931   0.62839   1.000
    C147    C    0.47953   0.88552   0.00630   1.000
    C148    C    0.47930   0.62845   0.88579   1.000
    C149    C    0.88612   0.00603   0.47920   1.000
    C150    C    0.62880   0.47904   0.00622   1.000
    C151    C    0.00644   0.88590   0.62852   1.000
    C152    C    0.88599   0.62872   0.00645   1.000
    C153    C    0.47984   0.00636   0.62831   1.000
    C154    C    0.00659   0.47972   0.88544   1.000
    C155    C    0.62849   0.88600   0.47876   1.000
    O156    O    0.90947   0.48977   0.03653   1.000
    O157    O    0.90813   0.47829   0.96710   1.000
    O158    O    0.48989   0.56417   0.03657   1.000
    O159    O    0.47825   0.64651   0.96730   1.000
    O160    O    0.56421   0.90955   0.03674   1.000
    O161    O    0.64673   0.90834   0.96754   1.000
    O162    O    0.21621   0.21661   0.03900   1.000
    O163    O    0.56451   0.48952   0.03681   1.000
    O164    O    0.64686   0.47776   0.96780   1.000
    O165    O    0.48971   0.90893   0.03690   1.000
    O166    O    0.47827   0.90717   0.96785   1.000
    O167    O    0.90918   0.56437   0.03698   1.000
    O168    O    0.90762   0.64688   0.96804   1.000
    O169    O    0.52697   0.21653   0.03941   1.000
    O170    O    0.21672   0.52727   0.03963   1.000
    O171    O    0.51049   0.43580   0.09035   1.000
    O172    O    0.43588   0.51049   0.09080   1.000
    O173    O    0.43559   0.96302   0.09038   1.000
    O174    O    0.51007   0.96298   0.09093   1.000
    O175    O    0.96311   0.51025   0.09074   1.000
    O176    O    0.96286   0.43568   0.09075   1.000
    O177    O    0.35313   0.03220   0.09173   1.000
    O178    O    0.28867   0.09263   0.09220   1.000
    O179    O    0.35310   0.09234   0.03179   1.000
    O180    O    0.52193   0.35342   0.09185   1.000
    O181    O    0.52528   0.28899   0.09253   1.000
    O182    O    0.52180   0.35332   0.03195   1.000
    O183    O    0.03180   0.35324   0.09240   1.000
    O184    O    0.09228   0.28882   0.09269   1.000
    O185    O    0.09181   0.35337   0.03239   1.000
    O186    O    0.03233   0.52178   0.09244   1.000
    O187    O    0.09277   0.52535   0.09295   1.000
    O188    O    0.09241   0.52187   0.03245   1.000
    O189    O    0.52157   0.03206   0.09273   1.000
    O190    O    0.52511   0.09258   0.09307   1.000
    O191    O    0.52168   0.09206   0.03265   1.000
    O192    O    0.35336   0.52221   0.09267   1.000
    O193    O    0.28893   0.52564   0.09311   1.000
    O194    O    0.35332   0.52215   0.03271   1.000
    O195    O    0.22094   0.15718   0.09306   1.000
    O196    O    0.15691   0.22116   0.09325   1.000
    O197    O    0.52748   0.22129   0.09351   1.000
    O198    O    0.52741   0.15724   0.09369   1.000
    O199    O    0.15734   0.52772   0.09377   1.000
    O200    O    0.22130   0.52783   0.09382   1.000
    O201    O    0.22107   0.09324   0.15686   1.000
    O202    O    0.09313   0.22106   0.15719   1.000
    O203    O    0.52746   0.22144   0.15729   1.000
    O204    O    0.09345   0.52759   0.15759   1.000
    O205    O    0.52731   0.09347   0.15762   1.000
    O206    O    0.22124   0.52785   0.15769   1.000
    O207    O    0.21655   0.03899   0.21622   1.000
    O208    O    0.15718   0.09315   0.22099   1.000
    O209    O    0.03905   0.21635   0.21661   1.000
    O210    O    0.09327   0.15700   0.22113   1.000
    O211    O    0.52691   0.21692   0.21655   1.000
    O212    O    0.52737   0.15754   0.22138   1.000
    O213    O    0.03925   0.52691   0.21693   1.000
    O214    O    0.09339   0.52759   0.22158   1.000
    O215    O    0.52666   0.03939   0.21705   1.000
    O216    O    0.52729   0.09362   0.22152   1.000
    O217    O    0.21655   0.52733   0.21703   1.000
    O218    O    0.15722   0.52774   0.22162   1.000
    O219    O    0.09271   0.09237   0.28876   1.000
    O220    O    0.52505   0.09298   0.28910   1.000
    O221    O    0.09256   0.52534   0.28921   1.000
    O222    O    0.09245   0.03191   0.35319   1.000
    O223    O    0.03238   0.09194   0.35324   1.000
    O224    O    0.52164   0.09259   0.35342   1.000
    O225    O    0.52148   0.03258   0.35353   1.000
    O226    O    0.03206   0.52171   0.35355   1.000
    O227    O    0.09205   0.52186   0.35358   1.000
    O228    O    0.09084   0.96292   0.43563   1.000
    O229    O    0.96317   0.09056   0.43564   1.000
    O230    O    0.51031   0.09086   0.43569   1.000
    O231    O    0.96298   0.51011   0.43583   1.000
    O232    O    0.09059   0.51036   0.43589   1.000
    O233    O    0.50995   0.96333   0.43585   1.000
    O234    O    0.77889   0.84257   0.47149   1.000
    O235    O    0.84293   0.77863   0.47151   1.000
    O236    O    0.78357   0.78322   0.47200   1.000
    O237    O    0.77884   0.90642   0.47162   1.000
    O238    O    0.71118   0.90714   0.47387   1.000
    O239    O    0.90680   0.77866   0.47164   1.000
    O240    O    0.90761   0.71102   0.47392   1.000
    O241    O    0.84281   0.90645   0.47173   1.000
    O242    O    0.78341   0.96059   0.47226   1.000
    O243    O    0.90673   0.84263   0.47173   1.000
    O244    O    0.96097   0.78331   0.47228   1.000
    O245    O    0.90739   0.90720   0.47417   1.000
    O246    O    0.64678   0.96758   0.47740   1.000
    O247    O    0.64669   0.90756   0.47745   1.000
    O248    O    0.90810   0.64657   0.47749   1.000
    O249    O    0.96811   0.64667   0.47756   1.000
    O250    O    0.96782   0.90758   0.47786   1.000
    O251    O    0.90774   0.96760   0.47787   1.000
    O252    O    0.56441   0.03680   0.48928   1.000
    O253    O    0.56413   0.90926   0.48938   1.000
    O254    O    0.90945   0.56412   0.48939   1.000
    O255    O    0.03708   0.56432   0.48949   1.000
    O256    O    0.03694   0.90918   0.48956   1.000
    O257    O    0.90926   0.03681   0.48953   1.000
    O258    O    0.96284   0.09106   0.51021   1.000
    O259    O    0.90943   0.03686   0.56411   1.000
    O260    O    0.43583   0.09055   0.51055   1.000
    O261    O    0.49000   0.03697   0.56411   1.000
    O262    O    0.09045   0.96335   0.51029   1.000
    O263    O    0.03702   0.90913   0.56422   1.000
    O264    O    0.43545   0.96307   0.51060   1.000
    O265    O    0.48960   0.90951   0.56413   1.000
    O266    O    0.96297   0.43564   0.51060   1.000
    O267    O    0.90920   0.48959   0.56420   1.000
    O268    O    0.09066   0.43577   0.51065   1.000
    O269    O    0.03688   0.48978   0.56420   1.000
    O270    O    0.03174   0.09286   0.52179   1.000
    O271    O    0.09175   0.03277   0.52183   1.000
    O272    O    0.35326   0.09201   0.52249   1.000
    O273    O    0.03205   0.35330   0.52251   1.000
    O274    O    0.35307   0.03206   0.52250   1.000
    O275    O    0.09213   0.35333   0.52252   1.000
    O276    O    0.09224   0.09307   0.52555   1.000
    O277    O    0.28871   0.09257   0.52606   1.000
    O278    O    0.09251   0.28892   0.52609   1.000
    O279    O    0.21628   0.03939   0.52764   1.000
    O280    O    0.03892   0.21688   0.52768   1.000
    O281    O    0.21654   0.21651   0.52794   1.000
    O282    O    0.15692   0.09361   0.52818   1.000
    O283    O    0.09308   0.15750   0.52820   1.000
    O284    O    0.22098   0.09347   0.52830   1.000
    O285    O    0.09317   0.22137   0.52833   1.000
    O286    O    0.22108   0.15723   0.52841   1.000
    O287    O    0.15712   0.22124   0.52842   1.000
    O288    O    0.47829   0.90800   0.64641   1.000
    O289    O    0.47850   0.96792   0.64643   1.000
    O290    O    0.96769   0.47819   0.64647   1.000
    O291    O    0.90803   0.96766   0.64656   1.000
    O292    O    0.90763   0.47809   0.64650   1.000
    O293    O    0.96802   0.90756   0.64664   1.000
    O294    O    0.47492   0.90739   0.71080   1.000
    O295    O    0.90726   0.47461   0.71084   1.000
    O296    O    0.90760   0.90734   0.71108   1.000
    O297    O    0.47260   0.84269   0.77837   1.000
    O298    O    0.47267   0.90646   0.77847   1.000
    O299    O    0.90660   0.47239   0.77837   1.000
    O300    O    0.84268   0.47222   0.77852   1.000
    O301    O    0.84300   0.90682   0.77874   1.000
    O302    O    0.90680   0.84286   0.77886   1.000
    O303    O    0.96084   0.47310   0.78284   1.000
    O304    O    0.47307   0.78340   0.78291   1.000
    O305    O    0.47329   0.96055   0.78319   1.000
    O306    O    0.78369   0.96109   0.78329   1.000
    O307    O    0.78329   0.47262   0.78328   1.000
    O308    O    0.96090   0.78344   0.78360   1.000
    O309    O    0.90673   0.47243   0.84224   1.000
    O310    O    0.47252   0.77863   0.84230   1.000
    O311    O    0.47265   0.90631   0.84253   1.000
    O312    O    0.77876   0.47210   0.84256   1.000
    O313    O    0.77898   0.90698   0.84270   1.000
    O314    O    0.90670   0.77895   0.84294   1.000
    O315    O    0.84294   0.47230   0.90616   1.000
    O316    O    0.90761   0.47474   0.90675   1.000
    O317    O    0.47250   0.77849   0.90623   1.000
    O318    O    0.47474   0.71093   0.90689   1.000
    O319    O    0.47255   0.84239   0.90635   1.000
    O320    O    0.47482   0.90691   0.90727   1.000
    O321    O    0.77889   0.47215   0.90632   1.000
    O322    O    0.71118   0.47430   0.90726   1.000
    O323    O    0.77887   0.84318   0.90664   1.000
    O324    O    0.71124   0.90785   0.90721   1.000
    O325    O    0.96813   0.47839   0.90705   1.000
    O326    O    0.03710   0.48996   0.90892   1.000
    O327    O    0.84280   0.77910   0.90677   1.000
    O328    O    0.90732   0.71134   0.90760   1.000
    O329    O    0.47812   0.64656   0.90733   1.000
    O330    O    0.48960   0.56417   0.90912   1.000
    O331    O    0.64684   0.96836   0.90749   1.000
    O332    O    0.56436   0.03723   0.90913   1.000
    O333    O    0.47830   0.96729   0.90787   1.000
    O334    O    0.48978   0.03669   0.90938   1.000
    O335    O    0.64669   0.47770   0.90789   1.000
    O336    O    0.56418   0.48941   0.90943   1.000
    O337    O    0.96771   0.64688   0.90807   1.000
    O338    O    0.03689   0.56446   0.90946   1.000
    O339    O    0.78363   0.47274   0.96040   1.000
    O340    O    0.47301   0.78301   0.96047   1.000
    O341    O    0.78341   0.78385   0.96089   1.000
    O342    O    0.43561   0.09081   0.96288   1.000
    O343    O    0.51022   0.09062   0.96329   1.000
    O344    O    0.09050   0.43590   0.96319   1.000
    O345    O    0.09081   0.51042   0.96320   1.000
    O346    O    0.51020   0.43565   0.96298   1.000
    O347    O    0.43567   0.51037   0.96337   1.000
    O348    O    0.49995   0.00005   0.49995   1.000
    O349    O    0.99999   0.50011   0.99995   1.000
    O350    O    0.50006   0.49994   0.99992   1.000
    O351    O    0.99999   0.99998   0.49990   1.000
    O352    O    0.49994   0.99998   0.99995   1.000
    O353    O    0.99998   0.49996   0.50004   1.000
loop_
    _geom_bond_atom_site_label_1
    _geom_bond_atom_site_label_2
    _geom_bond_distance
    _geom_bond_site_symmetry_2
    _ccdc_geom_bond_type
    C111   O156      1.01195      .   S
    C3     O156      1.01195      .   S
    C111   O157      0.63945  1_554   S
    C42    O157      0.63945      .   S
    C114   O158      1.01258      .   S
    C6     O158      1.01258      .   S
    C114   O159      0.63953  1_554   S
    C48    O159      0.63953      .   S
    C116   O160      1.01344      .   S
    C8     O160      1.01344      .   S
    C116   O161      0.63945  1_554   S
    C52    O161      0.63945      .   S
    C32    O162      0.54377      .   S
    C104   O162      0.54377      .   S
    C150   O163      1.01314      .   S
    C6     O163      1.01314      .   S
    C150   O164      0.63952  1_554   S
    C44    O164      0.63952      .   S
    C147   O165      1.01292      .   S
    C8     O165      1.01292      .   S
    C147   O166      0.63953  1_554   S
    C56    O166      0.63953      .   S
    C152   O167      1.01412      .   S
    C3     O167      1.01412      .   S
    C152   O168      0.63943  1_554   S
    C38    O168      0.63943      .   S
    C27    O169      0.54377      .   S
    C99    O169      0.54377      .   S
    C30    O170      0.54369      .   S
    C102   O170      0.54369      .   S
    C6     O171      1.01319      .   S
    C124   O171      1.01319      .   S
    C6     O172      1.01370      .   S
    C136   O172      1.01370      .   S
    C8     O173      1.01319      .   S
    C121   O173      1.01319      .   S
    C8     O174      1.01378      .   S
    C142   O174      1.01378      .   S
    C3     O175      1.01286      .   S
    C130   O175      1.01286      .   S
    C3     O176      1.01406      .   S
    C133   O176      1.01406      .   S
    C62    O177      0.63953      .   S
    C121   O177      0.63953  1_565   S
    C62    O178      0.74793      .   S
    C63    O178      0.74793      .   S
    C62    O179      0.63945      .   S
    C140   O179      0.63945  1_556   S
    C68    O180      0.63937      .   S
    C124   O180      0.63937      .   S
    C68    O181      0.74808      .   S
    C69    O181      0.74808      .   S
    C68    O182      0.63955      .   S
    C138   O182      0.63955  1_556   S
    C76    O183      0.63924      .   S
    C133   O183      0.63924  1_655   S
    C76    O184      0.74817      .   S
    C77    O184      0.74817      .   S
    C76    O185      0.63947      .   S
    C128   O185      0.63947  1_556   S
    C80    O186      0.63948      .   S
    C130   O186      0.63948  1_655   S
    C80    O187      0.74791      .   S
    C81    O187      0.74791      .   S
    C80    O188      0.63949      .   S
    C135   O188      0.63949  1_556   S
    C66    O189      0.63956      .   S
    C142   O189      0.63956  1_565   S
    C66    O190      0.74832      .   S
    C67    O190      0.74832      .   S
    C66    O191      0.63927      .   S
    C123   O191      0.63927  1_556   S
    C72    O192      0.63930      .   S
    C136   O192      0.63930      .   S
    C72    O193      0.74797      .   S
    C73    O193      0.74797      .   S
    C72    O194      0.63954      .   S
    C126   O194      0.63954  1_556   S
    C104   O195      0.69955      .   S
    C63    O195      0.69955      .   S
    C104   O196      0.69980      .   S
    C77    O196      0.69980      .   S
    C99    O197      0.69969      .   S
    C69    O197      0.69969      .   S
    C99    O198      0.69978      .   S
    C67    O198      0.69978      .   S
    C102   O199      0.69968      .   S
    C81    O199      0.69968      .   S
    C102   O200      0.69980      .   S
    C73    O200      0.69980      .   S
    C63    O201      0.70029      .   S
    C97    O201      0.70029      .   S
    C77    O202      0.69975      .   S
    C103   O202      0.69975      .   S
    C69    O203      0.69979      .   S
    C100   O203      0.69979      .   S
    C81    O204      0.69973      .   S
    C106   O204      0.69973      .   S
    C67    O205      0.69915      .   S
    C105   O205      0.69915      .   S
    C73    O206      0.69966      .   S
    C98    O206      0.69966      .   S
    C97    O207      0.54375      .   S
    C25    O207      0.54375      .   S
    C97    O208      0.69974      .   S
    C75    O208      0.69974      .   S
    C103   O209      0.54373      .   S
    C31    O209      0.54373      .   S
    C103   O210      0.69981      .   S
    C75    O210      0.69981      .   S
    C100   O211      0.54319      .   S
    C28    O211      0.54319      .   S
    C100   O212      0.69978      .   S
    C79    O212      0.69978      .   S
    C106   O213      0.54374      .   S
    C34    O213      0.54374      .   S
    C106   O214      0.69971      .   S
    C65    O214      0.69971      .   S
    C105   O215      0.54375      .   S
    C33    O215      0.54375      .   S
    C105   O216      0.70037      .   S
    C79    O216      0.70037      .   S
    C98    O217      0.54381      .   S
    C26    O217      0.54381      .   S
    C98    O218      0.69977      .   S
    C65    O218      0.69977      .   S
    C75    O219      0.74810      .   S
    C74    O219      0.74810      .   S
    C79    O220      0.74800      .   S
    C78    O220      0.74800      .   S
    C65    O221      0.74797      .   S
    C64    O221      0.74797      .   S
    C74    O222      0.63948      .   S
    C139   O222      0.63948  1_565   S
    C74    O223      0.63946      .   S
    C127   O223      0.63946  1_655   S
    C78    O224      0.63927      .   S
    C134   O224      0.63927      .   S
    C78    O225      0.63957      .   S
    C129   O225      0.63957  1_565   S
    C64    O226      0.63949      .   S
    C141   O226      0.63949  1_655   S
    C64    O227      0.63894      .   S
    C122   O227      0.63894      .   S
    C139   O228      1.01402      .   S
    C5     O228      1.01402      .   S
    C127   O229      1.01317      .   S
    C7     O229      1.01317      .   S
    C134   O230      1.01365      .   S
    C0     O230      1.01365      .   S
    C141   O231      1.01295      .   S
    C11    O231      1.01295      .   S
    C122   O232      1.01336      .   S
    C9     O232      1.01336      .   S
    C129   O233      1.01256      .   S
    C2     O233      1.01256      .   S
    C95    O234      0.69996      .   S
    C37    O234      0.69996      .   S
    C95    O235      0.69997      .   S
    C59    O235      0.69997      .   S
    C95    O236      0.54332      .   S
    C23    O236      0.54332      .   S
    C37    O237      0.69980      .   S
    C84    O237      0.69980      .   S
    C37    O238      0.74793      .   S
    C36    O238      0.74793      .   S
    C59    O239      0.69974      .   S
    C89    O239      0.69974      .   S
    C59    O240      0.74792      .   S
    C58    O240      0.74792      .   S
    C84    O241      0.69966      .   S
    C47    O241      0.69966      .   S
    C84    O242      0.54373      .   S
    C12    O242      0.54373      .   S
    C89    O243      0.69971      .   S
    C47    O243      0.69971      .   S
    C89    O244      0.54375      .   S
    C17    O244      0.54375      .   S
    C47    O245      0.74794      .   S
    C46    O245      0.74794      .   S
    C36    O246      0.63958      .   S
    C108   O246      0.63958  1_545   S
    C36    O247      0.63932      .   S
    C155   O247      0.63932      .   S
    C58    O248      0.63936      .   S
    C119   O248      0.63936      .   S
    C58    O249      0.63948      .   S
    C144   O249      0.63948  1_455   S
    C46    O250      0.63949      .   S
    C113   O250      0.63949  1_455   S
    C46    O251      0.63956      .   S
    C149   O251      0.63956  1_545   S
    C108   O252      1.01263      .   S
    C0     O252      1.01263      .   S
    C155   O253      1.01373      .   S
    C2     O253      1.01373      .   S
    C119   O254      1.01327      .   S
    C11    O254      1.01327      .   S
    C144   O255      1.01298      .   S
    C9     O255      1.01298      .   S
    C113   O256      1.01239      .   S
    C5     O256      1.01239      .   S
    C149   O257      1.01336      .   S
    C7     O257      1.01336      .   S
    C7     O258      1.01303      .   S
    C137   O258      1.01303      .   S
    C7     O259      1.01333      .   S
    C115   O259      1.01333      .   S
    C0     O260      1.01322      .   S
    C131   O260      1.01322      .   S
    C0     O261      1.01340      .   S
    C153   O261      1.01340      .   S
    C5     O262      1.01282      .   S
    C125   O262      1.01282      .   S
    C5     O263      1.01399      .   S
    C151   O263      1.01399      .   S
    C2     O264      1.01311      .   S
    C132   O264      1.01311      .   S
    C2     O265      1.01296      .   S
    C110   O265      1.01296      .   S
    C11    O266      1.01247      .   S
    C120   O266      1.01247      .   S
    C11    O267      1.01342      .   S
    C146   O267      1.01342      .   S
    C9     O268      1.01368      .   S
    C143   O268      1.01368      .   S
    C9     O269      1.01238      .   S
    C117   O269      1.01238      .   S
    C137   O270      0.63867  1_655   S
    C70    O270      0.63867      .   S
    C125   O271      0.63877  1_565   S
    C70    O271      0.63877      .   S
    C131   O272      0.63938      .   S
    C82    O272      0.63938      .   S
    C120   O273      0.63951  1_655   S
    C60    O273      0.63951      .   S
    C132   O274      0.63956  1_565   S
    C82    O274      0.63956      .   S
    C143   O275      0.63937      .   S
    C60    O275      0.63937      .   S
    C70    O276      0.74970      .   S
    C71    O276      0.74970      .   S
    C82    O277      0.74795      .   S
    C83    O277      0.74795      .   S
    C60    O278      0.74791      .   S
    C61    O278      0.74791      .   S
    C29    O279      0.54373      .   S
    C101   O279      0.54373      .   S
    C24    O280      0.54373      .   S
    C96    O280      0.54373      .   S
    C35    O281      0.54380      .   S
    C107   O281      0.54380      .   S
    C71    O282      0.69973      .   S
    C101   O282      0.69973      .   S
    C71    O283      0.69967      .   S
    C96    O283      0.69967      .   S
    C101   O284      0.69977      .   S
    C83    O284      0.69977      .   S
    C96    O285      0.69973      .   S
    C61    O285      0.69973      .   S
    C83    O286      0.69977      .   S
    C107   O286      0.69977      .   S
    C61    O287      0.69972      .   S
    C107   O287      0.69972      .   S
    C110   O288      0.63931      .   S
    C40    O288      0.63931      .   S
    C153   O289      0.63957  1_545   S
    C40    O289      0.63957      .   S
    C117   O290      0.63952  1_455   S
    C54    O290      0.63952      .   S
    C115   O291      0.63952  1_545   S
    C50    O291      0.63952      .   S
    C146   O292      0.63922      .   S
    C54    O292      0.63922      .   S
    C151   O293      0.63945  1_455   S
    C50    O293      0.63945      .   S
    C40    O294      0.74802      .   S
    C41    O294      0.74802      .   S
    C54    O295      0.74804      .   S
    C55    O295      0.74804      .   S
    C50    O296      0.74818      .   S
    C51    O296      0.74818      .   S
    C41    O297      0.69984      .   S
    C86    O297      0.69984      .   S
    C41    O298      0.69963      .   S
    C94    O298      0.69963      .   S
    C55    O299      0.69970      .   S
    C93    O299      0.69970      .   S
    C55    O300      0.69974      .   S
    C88    O300      0.69974      .   S
    C51    O301      0.69980      .   S
    C91    O301      0.69980      .   S
    C51    O302      0.69975      .   S
    C85    O302      0.69975      .   S
    C21    O303      0.54375      .   S
    C93    O303      0.54375      .   S
    C14    O304      0.54376      .   S
    C86    O304      0.54376      .   S
    C22    O305      0.54377      .   S
    C94    O305      0.54377      .   S
    C19    O306      0.54376      .   S
    C91    O306      0.54376      .   S
    C16    O307      0.54377      .   S
    C88    O307      0.54377      .   S
    C13    O308      0.54377      .   S
    C85    O308      0.54377      .   S
    C93    O309      0.69967      .   S
    C43    O309      0.69967      .   S
    C86    O310      0.69974      .   S
    C49    O310      0.69974      .   S
    C94    O311      0.69987      .   S
    C57    O311      0.69987      .   S
    C88    O312      0.69975      .   S
    C45    O312      0.69975      .   S
    C91    O313      0.69974      .   S
    C53    O313      0.69974      .   S
    C85    O314      0.69979      .   S
    C39    O314      0.69979      .   S
    C43    O315      0.69973      .   S
    C87    O315      0.69973      .   S
    C43    O316      0.74798      .   S
    C42    O316      0.74798      .   S
    C49    O317      0.69979      .   S
    C90    O317      0.69979      .   S
    C49    O318      0.74806      .   S
    C48    O318      0.74806      .   S
    C57    O319      0.69970      .   S
    C90    O319      0.69970      .   S
    C57    O320      0.74804      .   S
    C56    O320      0.74804      .   S
    C45    O321      0.69975      .   S
    C87    O321      0.69975      .   S
    C45    O322      0.74799      .   S
    C44    O322      0.74799      .   S
    C53    O323      0.69984      .   S
    C92    O323      0.69984      .   S
    C53    O324      0.74816      .   S
    C52    O324      0.74816      .   S
    C154   O325      0.63947  1_455   S
    C42    O325      0.63947      .   S
    C154   O326      1.01287      .   S
    C1     O326      1.01287      .   S
    C39    O327      0.69976      .   S
    C92    O327      0.69976      .   S
    C39    O328      0.74813      .   S
    C38    O328      0.74813      .   S
    C148   O329      0.63932      .   S
    C48    O329      0.63932      .   S
    C148   O330      1.01404      .   S
    C4     O330      1.01404      .   S
    C145   O331      0.63949  1_545   S
    C52    O331      0.63949      .   S
    C145   O332      1.01392      .   S
    C10    O332      1.01392      .   S
    C118   O333      0.63955  1_545   S
    C56    O333      0.63955      .   S
    C118   O334      1.01271      .   S
    C10    O334      1.01271      .   S
    C112   O335      0.63945      .   S
    C44    O335      0.63945      .   S
    C112   O336      1.01310      .   S
    C4     O336      1.01310      .   S
    C109   O337      0.63948  1_455   S
    C38    O337      0.63948      .   S
    C109   O338      1.01313      .   S
    C1     O338      1.01313      .   S
    C87    O339      0.54372      .   S
    C15    O339      0.54372      .   S
    C90    O340      0.54371      .   S
    C18    O340      0.54371      .   S
    C92    O341      0.54373      .   S
    C20    O341      0.54373      .   S
    C10    O342      1.01412      .   S
    C140   O342      1.01412      .   S
    C10    O343      1.01234      .   S
    C123   O343      1.01234      .   S
    C1     O344      1.01368      .   S
    C128   O344      1.01368      .   S
    C1     O345      1.01330      .   S
    C135   O345      1.01330      .   S
    C4     O346      1.01334      .   S
    C138   O346      1.01334      .   S
    C4     O347      1.01262      .   S
    C126   O347      1.01262      .   S
    C0     O348      1.28179      .   S
    C2     O348      1.28179  1_565   S
    C1     O349      1.28146  1_455   S
    C3     O349      1.28146  1_554   S
    C4     O350      1.28161      .   S
    C6     O350      1.28161  1_554   S
    C5     O351      1.28158  1_455   S
    C7     O351      1.28158  1_545   S
    C8     O352      1.28153  1_554   S
    C10    O352      1.28153  1_545   S
    C9     O353      1.28211  1_455   S
    C11    O353      1.28211      .   S
