# CIF file generated by openbabel 2.4.90, see http://openbabel.sf.net
data_I
_chemical_name_common ''
_cell_length_a 18.942
_cell_length_b 18.96
_cell_length_c 18.965
_cell_angle_alpha 59.983
_cell_angle_beta 60.023
_cell_angle_gamma 60.017
_space_group_name_H-M_alt 'P 1'
_space_group_name_Hall 'P 1'
loop_
    _symmetry_equiv_pos_as_xyz
    x,y,z
loop_
    _atom_site_label
    _atom_site_type_symbol
    _atom_site_fract_x
    _atom_site_fract_y
    _atom_site_fract_z
    _atom_site_occupancy
    Zr0     Zr   0.50015   0.06758   0.49990   1.000
    Zr1     Zr   0.06762   0.50020   0.93240   1.000
    Zr2     Zr   0.49976   0.93252   0.49999   1.000
    Zr3     Zr   0.93237   0.50002   0.06750   1.000
    Zr4     Zr   0.49990   0.49989   0.93245   1.000
    Zr5     Zr   0.06759   0.93236   0.49993   1.000
    Zr6     Zr   0.50023   0.50000   0.06739   1.000
    Zr7     Zr   0.93239   0.06760   0.49986   1.000
    Zr8     Zr   0.49990   0.93234   0.06750   1.000
    Zr9     Zr   0.06760   0.50006   0.50007   1.000
    Zr10    Zr   0.49999   0.06762   0.93239   1.000
    Zr11    Zr   0.93236   0.49986   0.50000   1.000
    O12     O    0.49995   0.00005   0.49995   1.000
    O13     O    0.99999   0.50011   0.99995   1.000
    O14     O    0.50006   0.49994   0.99992   1.000
    O15     O    0.99999   0.99998   0.49990   1.000
    O16     O    0.49994   0.99998   0.99995   1.000
    O17     O    0.99998   0.49996   0.50004   1.000
    N18     N    0.15842   0.52442   0.15875   1.000
    O19     O    0.29705   0.51740   0.06106   1.000
    O20     O    0.06077   0.51734   0.12475   1.000
    O21     O    0.12462   0.51742   0.06098   1.000
    O22     O    0.12451   0.51739   0.29732   1.000
    O23     O    0.29715   0.51746   0.12478   1.000
    O24     O    0.06070   0.51727   0.29729   1.000
    N25     N    0.15816   0.15853   0.52489   1.000
    O26     O    0.29681   0.06080   0.51775   1.000
    O27     O    0.12441   0.29715   0.51777   1.000
    O28     O    0.06057   0.29709   0.51775   1.000
    O29     O    0.06050   0.12479   0.51755   1.000
    O30     O    0.29700   0.12454   0.51772   1.000
    O31     O    0.12431   0.06094   0.51759   1.000
    N32     N    0.47583   0.84141   0.84132   1.000
    O33     O    0.48281   0.93905   0.87535   1.000
    O34     O    0.48272   0.70279   0.87522   1.000
    O35     O    0.48277   0.87517   0.93911   1.000
    O36     O    0.48286   0.70279   0.93894   1.000
    O37     O    0.48272   0.87546   0.70273   1.000
    O38     O    0.48291   0.93919   0.70271   1.000
    N39     N    0.84170   0.84183   0.84161   1.000
    O40     O    0.93930   0.70314   0.87553   1.000
    O41     O    0.70303   0.93953   0.87537   1.000
    O42     O    0.93936   0.87548   0.70292   1.000
    O43     O    0.87557   0.93934   0.70286   1.000
    O44     O    0.70296   0.87569   0.93917   1.000
    O45     O    0.87544   0.70310   0.93929   1.000
    N46     N    0.15824   0.15829   0.15824   1.000
    O47     O    0.29691   0.06066   0.12431   1.000
    O48     O    0.06055   0.29698   0.12449   1.000
    O49     O    0.12454   0.06060   0.29693   1.000
    O50     O    0.29692   0.12455   0.06056   1.000
    O51     O    0.12437   0.29709   0.06071   1.000
    O52     O    0.06070   0.12442   0.29694   1.000
    N53     N    0.84168   0.47557   0.84128   1.000
    O54     O    0.70293   0.48249   0.87535   1.000
    O55     O    0.93939   0.48276   0.87510   1.000
    O56     O    0.87544   0.48258   0.70274   1.000
    O57     O    0.70310   0.48254   0.93904   1.000
    O58     O    0.87557   0.48267   0.93890   1.000
    O59     O    0.93928   0.48267   0.70274   1.000
    N60     N    0.52414   0.15852   0.15856   1.000
    O61     O    0.51710   0.06075   0.12474   1.000
    O62     O    0.51705   0.06092   0.29720   1.000
    O63     O    0.51718   0.12457   0.06092   1.000
    O64     O    0.51717   0.29708   0.06077   1.000
    O65     O    0.51722   0.12469   0.29712   1.000
    O66     O    0.51732   0.29716   0.12445   1.000
    N67     N    0.84172   0.84144   0.47502   1.000
    O68     O    0.87549   0.93913   0.48228   1.000
    O69     O    0.70306   0.93912   0.48215   1.000
    O70     O    0.70292   0.87535   0.48220   1.000
    O71     O    0.87559   0.70278   0.48220   1.000
    O72     O    0.93940   0.70288   0.48225   1.000
    O73     O    0.93933   0.87531   0.48229   1.000
loop_
    _geom_bond_atom_site_label_1
    _geom_bond_atom_site_label_2
    _geom_bond_distance
    _geom_bond_site_symmetry_2
    _ccdc_geom_bond_type
    Zr0    O12       1.28179      .   S
    Zr2    O12       1.28179  1_565   S
    Zr1    O13       1.28146  1_455   S
    Zr3    O13       1.28146  1_554   S
    Zr4    O14       1.28161      .   S
    Zr6    O14       1.28161  1_554   S
    Zr5    O15       1.28158  1_455   S
    Zr7    O15       1.28158  1_545   S
    Zr8    O16       1.28153  1_554   S
    Zr10   O16       1.28153  1_545   S
    Zr9    O17       1.28211  1_455   S
    Zr11   O17       1.28211      .   S
    N18    O19       2.31973      .   S
    Zr4    O19       3.31558  1_556   S
    N18    O20       2.32011      .   S
    Zr3    O20       3.31588  1_655   S
    N18    O21       2.32032      .   S
    Zr1    O21       3.31643  1_556   S
    N18    O22       2.32044      .   S
    Zr9    O22       3.31706      .   S
    N18    O23       2.32034      .   S
    Zr6    O23       3.31587      .   S
    N18    O24       2.31992      .   S
    Zr11   O24       3.31534  1_655   S
    N25    O26       2.31961      .   S
    Zr2    O26       3.31489  1_565   S
    N25    O27       2.32084      .   S
    Zr9    O27       3.31694      .   S
    N25    O28       2.31890      .   S
    Zr11   O28       3.31393  1_655   S
    N25    O29       2.31938      .   S
    Zr7    O29       3.31446  1_655   S
    N25    O30       2.32072      .   S
    Zr0    O30       3.31666      .   S
    N25    O31       2.32061      .   S
    Zr5    O31       3.31704  1_565   S
    N32    O33       2.32081      .   S
    Zr10   O33       3.31697  1_545   S
    N32    O34       2.32127      .   S
    Zr4    O34       3.31765      .   S
    N32    O35       2.31990      .   S
    Zr8    O35       3.31510  1_554   S
    N32    O36       2.31968      .   S
    Zr6    O36       3.31536  1_554   S
    N32    O37       2.32086      .   S
    Zr2    O37       3.31735      .   S
    N32    O38       2.32065      .   S
    Zr0    O38       3.31639  1_545   S
    N39    O40       2.32011      .   S
    Zr1    O40       3.31611  1_455   S
    N39    O41       2.32028      .   S
    Zr10   O41       3.31597  1_545   S
    N39    O42       2.32073      .   S
    Zr5    O42       3.31710  1_455   S
    N39    O43       2.32057      .   S
    Zr7    O43       3.31692  1_545   S
    N39    O44       2.32067      .   S
    Zr8    O44       3.31708  1_554   S
    N39    O45       2.32087      .   S
    Zr3    O45       3.31713  1_554   S
    N46    O47       2.32023      .   S
    Zr8    O47       3.31610  1_565   S
    N46    O48       2.32055      .   S
    Zr3    O48       3.31669  1_655   S
    N46    O49       2.32078      .   S
    Zr5    O49       3.31704  1_565   S
    N46    O50       2.32058      .   S
    Zr10   O50       3.31673  1_556   S
    N46    O51       2.32095      .   S
    Zr1    O51       3.31773  1_556   S
    N46    O52       2.32037      .   S
    Zr7    O52       3.31666  1_655   S
    N53    O54       2.32064      .   S
    Zr4    O54       3.31653      .   S
    N53    O55       2.31988      .   S
    Zr1    O55       3.31495  1_455   S
    N53    O56       2.32093      .   S
    Zr11   O56       3.31712      .   S
    N53    O57       2.31962      .   S
    Zr6    O57       3.31497  1_554   S
    N53    O58       2.31987      .   S
    Zr3    O58       3.31539  1_554   S
    N53    O59       2.31946      .   S
    Zr9    O59       3.31476  1_455   S
    N60    O61       2.32100      .   S
    Zr8    O61       3.31719  1_565   S
    N60    O62       2.32023      .   S
    Zr2    O62       3.31596  1_565   S
    N60    O63       2.31974      .   S
    Zr10   O63       3.31540  1_556   S
    N60    O64       2.31993      .   S
    Zr4    O64       3.31531  1_556   S
    N60    O65       2.32129      .   S
    Zr0    O65       3.31762      .   S
    N60    O66       2.32116      .   S
    Zr6    O66       3.31775      .   S
    N67    O68       2.32063      .   S
    Zr7    O68       3.31690  1_545   S
    N67    O69       2.31955      .   S
    Zr0    O69       3.31506  1_545   S
    N67    O70       2.32046      .   S
    Zr2    O70       3.31623      .   S
    N67    O71       2.32062      .   S
    Zr11   O71       3.31677      .   S
    N67    O72       2.31925      .   S
    Zr9    O72       3.31440  1_455   S
    N67    O73       2.31943      .   S
    Zr5    O73       3.31455  1_455   S
