# CIF file generated by openbabel 2.4.90, see http://openbabel.sf.net
data_I
_chemical_name_common ''
_cell_length_a 23.02
_cell_length_b 14.98
_cell_length_c 14.982
_cell_angle_alpha 90.008
_cell_angle_beta 89.98
_cell_angle_gamma 90.016
_space_group_name_H-M_alt 'P 1'
_space_group_name_Hall 'P 1'
loop_
    _symmetry_equiv_pos_as_xyz
    x,y,z
loop_
    _atom_site_label
    _atom_site_type_symbol
    _atom_site_fract_x
    _atom_site_fract_y
    _atom_site_fract_z
    _atom_site_occupancy
    H0      H    0.21393   0.37331   0.09066   1.000
    H1      H    0.71394   0.37332   0.09065   1.000
    H2      H    0.28418   0.39899   0.04525   1.000
    H3      H    0.78419   0.39900   0.04525   1.000
    H4      H    0.26667   0.28766   0.07182   1.000
    H5      H    0.76669   0.28767   0.07180   1.000
    H6      H    0.44784   0.30757   0.29756   1.000
    H7      H    0.94785   0.30756   0.29756   1.000
    H8      H    0.45625   0.41457   0.25014   1.000
    H9      H    0.95626   0.41456   0.25015   1.000
    H10     H    0.44523   0.40353   0.36803   1.000
    H11     H    0.94524   0.40351   0.36800   1.000
    H12     H    0.32840   0.20192   0.23160   1.000
    H13     H    0.82840   0.20192   0.23160   1.000
    H14     H    0.32869   0.03661   0.22147   1.000
    H15     H    0.82870   0.03661   0.22147   1.000
    H16     H    0.44688   0.03848   0.01320   1.000
    H17     H    0.94689   0.03848   0.01320   1.000
    H18     H    0.45210   0.20349   0.01298   1.000
    H19     H    0.95211   0.20349   0.01290   1.000
    H20     H    0.46386   0.62672   0.90930   1.000
    H21     H    0.96387   0.62672   0.90932   1.000
    H22     H    0.03408   0.60104   0.95470   1.000
    H23     H    0.53409   0.60104   0.95470   1.000
    H24     H    0.01663   0.71237   0.92814   1.000
    H25     H    0.51663   0.71237   0.92813   1.000
    H26     H    0.19785   0.69247   0.70231   1.000
    H27     H    0.69784   0.69252   0.70230   1.000
    H28     H    0.20620   0.58548   0.74974   1.000
    H29     H    0.70622   0.58551   0.74972   1.000
    H30     H    0.19522   0.59651   0.63185   1.000
    H31     H    0.69523   0.59656   0.63184   1.000
    H32     H    0.07838   0.79811   0.76835   1.000
    H33     H    0.57838   0.79812   0.76834   1.000
    H34     H    0.07867   0.96342   0.77851   1.000
    H35     H    0.57868   0.96343   0.77800   1.000
    H36     H    0.19681   0.96160   0.98672   1.000
    H37     H    0.69682   0.96162   0.98671   1.000
    H38     H    0.20202   0.79659   0.98690   1.000
    H39     H    0.70203   0.79660   0.98690   1.000
    H40     H    0.08890   0.40934   0.87327   1.000
    H41     H    0.58891   0.40935   0.87329   1.000
    H42     H    0.15913   0.45479   0.89892   1.000
    H43     H    0.65915   0.45479   0.89893   1.000
    H44     H    0.14167   0.42815   0.78762   1.000
    H45     H    0.64168   0.42816   0.78763   1.000
    H46     H    0.32287   0.20242   0.80750   1.000
    H47     H    0.82286   0.20242   0.80749   1.000
    H48     H    0.33122   0.24989   0.91453   1.000
    H49     H    0.83123   0.24987   0.91449   1.000
    H50     H    0.32022   0.13198   0.90350   1.000
    H51     H    0.82022   0.13196   0.90343   1.000
    H52     H    0.20337   0.26840   0.70189   1.000
    H53     H    0.70338   0.26840   0.70180   1.000
    H54     H    0.20365   0.27855   0.53660   1.000
    H55     H    0.70366   0.27855   0.53660   1.000
    H56     H    0.32187   0.48681   0.53842   1.000
    H57     H    0.82187   0.48681   0.53841   1.000
    H58     H    0.32709   0.48702   0.70340   1.000
    H59     H    0.82710   0.48701   0.70340   1.000
    H60     H    0.33887   0.59066   0.12672   1.000
    H61     H    0.83888   0.59065   0.12670   1.000
    H62     H    0.40911   0.54527   0.10099   1.000
    H63     H    0.90912   0.54527   0.10000   1.000
    H64     H    0.39163   0.57184   0.21232   1.000
    H65     H    0.89164   0.57183   0.21232   1.000
    H66     H    0.07282   0.79769   0.19245   1.000
    H67     H    0.57283   0.79770   0.19246   1.000
    H68     H    0.08123   0.75026   0.08545   1.000
    H69     H    0.58123   0.75027   0.08546   1.000
    H70     H    0.07024   0.86816   0.09652   1.000
    H71     H    0.57024   0.86817   0.09653   1.000
    H72     H    0.45337   0.73164   0.29814   1.000
    H73     H    0.95338   0.73164   0.29813   1.000
    H74     H    0.45368   0.72149   0.46342   1.000
    H75     H    0.95369   0.72149   0.46342   1.000
    H76     H    0.07184   0.51327   0.46142   1.000
    H77     H    0.57185   0.51326   0.46142   1.000
    H78     H    0.07704   0.51308   0.29643   1.000
    H79     H    0.57705   0.51308   0.29643   1.000
    H80     H    0.16114   0.12674   0.59064   1.000
    H81     H    0.66114   0.12670   0.59063   1.000
    H82     H    0.09091   0.10101   0.54526   1.000
    H83     H    0.59091   0.10098   0.54526   1.000
    H84     H    0.10837   0.21235   0.57184   1.000
    H85     H    0.60839   0.21233   0.57180   1.000
    H86     H    0.42717   0.19242   0.79767   1.000
    H87     H    0.92720   0.19250   0.79766   1.000
    H88     H    0.41879   0.08542   0.75021   1.000
    H89     H    0.91879   0.08548   0.75025   1.000
    H90     H    0.42977   0.09646   0.86810   1.000
    H91     H    0.92978   0.09656   0.86813   1.000
    C92     C    0.63909   0.78220   0.87852   1.000
    C93     C    0.10492   0.83144   0.81849   1.000
    C94     C    0.60492   0.83145   0.81848   1.000
    C95     C    0.10512   0.92375   0.82373   1.000
    H96     H    0.04663   0.29816   0.73161   1.000
    H97     H    0.54664   0.29815   0.73160   1.000
    H98     H    0.04632   0.46347   0.72144   1.000
    H99     H    0.54633   0.46345   0.72143   1.000
    H100    H    0.42818   0.46146   0.51324   1.000
    H101    H    0.92819   0.46147   0.51324   1.000
    H102    H    0.42298   0.29644   0.51306   1.000
    H103    H    0.92299   0.29645   0.51306   1.000
    H104    H    0.41109   0.87334   0.40931   1.000
    H105    H    0.91110   0.87335   0.40931   1.000
    H106    H    0.34085   0.89900   0.45474   1.000
    H107    H    0.84086   0.89901   0.45474   1.000
    H108    H    0.35832   0.78768   0.42811   1.000
    H109    H    0.85833   0.78769   0.42812   1.000
    H110    H    0.17716   0.80753   0.20242   1.000
    H111    H    0.67717   0.80753   0.20242   1.000
    H112    H    0.16877   0.91455   0.24984   1.000
    H113    H    0.66878   0.91454   0.24984   1.000
    H114    H    0.17979   0.90347   0.13195   1.000
    H115    H    0.67979   0.90346   0.13195   1.000
    H116    H    0.29662   0.70194   0.26839   1.000
    H117    H    0.79663   0.70194   0.26839   1.000
    H118    H    0.29635   0.53663   0.27854   1.000
    H119    H    0.79635   0.53663   0.27850   1.000
    H120    H    0.17814   0.53846   0.48670   1.000
    H121    H    0.67814   0.53846   0.48678   1.000
    H122    H    0.17291   0.70347   0.48699   1.000
    H123    H    0.67291   0.70347   0.48699   1.000
    C124    C    0.44174   0.12267   0.80250   1.000
    C125    C    0.94175   0.12274   0.80252   1.000
    C126    C    0.48592   0.28213   0.62140   1.000
    C127    C    0.98593   0.28214   0.62143   1.000
    C128    C    0.02008   0.33145   0.68147   1.000
    H129    H    0.28609   0.09066   0.37326   1.000
    H130    H    0.78609   0.09066   0.37327   1.000
    H131    H    0.21584   0.04524   0.39895   1.000
    H132    H    0.71585   0.04524   0.39896   1.000
    H133    H    0.23333   0.07182   0.28763   1.000
    H134    H    0.73335   0.07181   0.28764   1.000
    H135    H    0.05217   0.29760   0.30754   1.000
    H136    H    0.55218   0.29760   0.30753   1.000
    H137    H    0.04376   0.25018   0.41453   1.000
    H138    H    0.54377   0.25018   0.41452   1.000
    H139    H    0.05477   0.36808   0.40348   1.000
    H140    H    0.55478   0.36808   0.40347   1.000
    H141    H    0.17162   0.23163   0.20189   1.000
    H142    H    0.67163   0.23163   0.20189   1.000
    H143    H    0.17132   0.22150   0.03660   1.000
    H144    H    0.67133   0.22150   0.03660   1.000
    H145    H    0.05313   0.01320   0.03849   1.000
    H146    H    0.55314   0.01321   0.03849   1.000
    H147    H    0.04792   0.01299   0.20340   1.000
    H148    H    0.54793   0.01299   0.20348   1.000
    H149    H    0.03613   0.90939   0.62668   1.000
    H150    H    0.53614   0.90939   0.62660   1.000
    H151    H    0.46591   0.95478   0.60102   1.000
    H152    H    0.96592   0.95479   0.60102   1.000
    H153    H    0.48337   0.92821   0.71233   1.000
    H154    H    0.98338   0.92821   0.71233   1.000
    H155    H    0.30215   0.70236   0.69244   1.000
    H156    H    0.80217   0.70237   0.69246   1.000
    H157    H    0.29380   0.74981   0.58545   1.000
    H158    H    0.79380   0.74979   0.58548   1.000
    H159    H    0.30478   0.63190   0.59648   1.000
    H160    H    0.80478   0.63189   0.59652   1.000
    H161    H    0.42163   0.76840   0.79807   1.000
    H162    H    0.92164   0.76840   0.79807   1.000
    H163    H    0.42134   0.77855   0.96336   1.000
    H164    H    0.92134   0.77855   0.96336   1.000
    H165    H    0.30318   0.98678   0.96157   1.000
    H166    H    0.80319   0.98678   0.96150   1.000
    H167    H    0.29796   0.98698   0.79658   1.000
    H168    H    0.79797   0.98698   0.79650   1.000
    C169    C    0.26033   0.35726   0.09309   1.000
    C170    C    0.76034   0.35727   0.09309   1.000
    C171    C    0.28152   0.37061   0.18790   1.000
    C172    C    0.78153   0.37061   0.18790   1.000
    C173    C    0.36799   0.38219   0.29236   1.000
    C174    C    0.86800   0.38219   0.29236   1.000
    C175    C    0.43328   0.37732   0.30242   1.000
    C176    C    0.93328   0.37731   0.30242   1.000
    C177    C    0.38913   0.21787   0.12138   1.000
    C178    C    0.88914   0.21787   0.12138   1.000
    C179    C    0.35495   0.16860   0.18145   1.000
    C180    C    0.85496   0.16860   0.18145   1.000
    C181    C    0.35515   0.07629   0.17623   1.000
    C182    C    0.85516   0.07629   0.17623   1.000
    C183    C    0.42088   0.07721   0.06012   1.000
    C184    C    0.92089   0.07721   0.06012   1.000
    C185    C    0.42354   0.16974   0.06026   1.000
    C186    C    0.92355   0.16974   0.06026   1.000
    C187    C    0.01026   0.64277   0.90687   1.000
    C188    C    0.51027   0.64277   0.90687   1.000
    C189    C    0.03148   0.62943   0.81205   1.000
    C190    C    0.53148   0.62942   0.81205   1.000
    C191    C    0.11797   0.61785   0.70756   1.000
    C192    C    0.61798   0.61786   0.70755   1.000
    C193    C    0.18326   0.62272   0.69746   1.000
    C194    C    0.68326   0.62276   0.69745   1.000
    C195    C    0.13908   0.78219   0.87853   1.000
    C196    C    0.60513   0.92376   0.82371   1.000
    C197    C    0.17082   0.92286   0.93981   1.000
    C198    C    0.67083   0.92288   0.93979   1.000
    C199    C    0.17348   0.83033   0.93965   1.000
    C200    C    0.67349   0.83034   0.93964   1.000
    C201    C    0.13531   0.40692   0.85722   1.000
    C202    C    0.63532   0.40692   0.85723   1.000
    C203    C    0.15651   0.31210   0.87058   1.000
    C204    C    0.65651   0.31211   0.87059   1.000
    C205    C    0.24298   0.20764   0.88215   1.000
    C206    C    0.74299   0.20764   0.88213   1.000
    C207    C    0.30827   0.19758   0.87729   1.000
    C208    C    0.80828   0.19757   0.87724   1.000
    C209    C    0.26411   0.37861   0.71781   1.000
    C210    C    0.76412   0.37861   0.71780   1.000
    C211    C    0.22992   0.31855   0.66856   1.000
    C212    C    0.72993   0.31855   0.66856   1.000
    C213    C    0.23012   0.32378   0.57620   1.000
    C214    C    0.73013   0.32378   0.57626   1.000
    C215    C    0.29586   0.43989   0.57715   1.000
    C216    C    0.79587   0.43989   0.57715   1.000
    C217    C    0.29853   0.43974   0.66967   1.000
    C218    C    0.79854   0.43974   0.66967   1.000
    C219    C    0.38528   0.59311   0.14274   1.000
    C220    C    0.88529   0.59310   0.14274   1.000
    C221    C    0.40649   0.68794   0.12941   1.000
    C222    C    0.90650   0.68794   0.12941   1.000
    C223    C    0.49298   0.79244   0.11783   1.000
    C224    C    0.99299   0.79244   0.11783   1.000
    C225    C    0.05826   0.80254   0.12271   1.000
    C226    C    0.55827   0.80254   0.12271   1.000
    C227    C    0.01409   0.62145   0.28212   1.000
    C228    C    0.51409   0.62146   0.28212   1.000
    C229    C    0.47992   0.68150   0.33142   1.000
    C230    C    0.97993   0.68150   0.33142   1.000
    C231    C    0.48013   0.67627   0.42372   1.000
    C232    C    0.98014   0.67627   0.42372   1.000
    C233    C    0.04584   0.56018   0.42273   1.000
    C234    C    0.54584   0.56018   0.42273   1.000
    C235    C    0.04849   0.56034   0.33021   1.000
    C236    C    0.54850   0.56034   0.33021   1.000
    C237    C    0.11473   0.14276   0.59309   1.000
    C238    C    0.61474   0.14274   0.59308   1.000
    C239    C    0.09352   0.12941   0.68791   1.000
    C240    C    0.59352   0.12943   0.68791   1.000
    C241    C    0.00703   0.11784   0.79241   1.000
    C242    C    0.50703   0.11783   0.79240   1.000
    C243    C    0.52009   0.33144   0.68146   1.000
    C244    C    0.01988   0.42376   0.67623   1.000
    C245    C    0.51989   0.42375   0.67622   1.000
    C246    C    0.45418   0.42276   0.56015   1.000
    C247    C    0.95419   0.42277   0.56016   1.000
    C248    C    0.45152   0.33022   0.56031   1.000
    C249    C    0.95153   0.33023   0.56030   1.000
    C250    C    0.36468   0.85729   0.40688   1.000
    C251    C    0.86469   0.85730   0.40688   1.000
    C252    C    0.34349   0.87065   0.31207   1.000
    C253    C    0.84350   0.87065   0.31200   1.000
    C254    C    0.25702   0.88219   0.20763   1.000
    C255    C    0.75703   0.88219   0.20763   1.000
    C256    C    0.19174   0.87729   0.19756   1.000
    C257    C    0.69174   0.87729   0.19756   1.000
    C258    C    0.23588   0.71787   0.37860   1.000
    C259    C    0.73589   0.71787   0.37859   1.000
    C260    C    0.27007   0.66861   0.31854   1.000
    C261    C    0.77008   0.66861   0.31850   1.000
    C262    C    0.26988   0.57630   0.32370   1.000
    C263    C    0.76988   0.57630   0.32376   1.000
    C264    C    0.20414   0.57719   0.43987   1.000
    C265    C    0.70415   0.57719   0.43986   1.000
    C266    C    0.20147   0.66973   0.43972   1.000
    C267    C    0.70147   0.66973   0.43972   1.000
    C268    C    0.23968   0.09309   0.35722   1.000
    C269    C    0.73969   0.09309   0.35723   1.000
    C270    C    0.21849   0.18791   0.37058   1.000
    C271    C    0.71850   0.18791   0.37057   1.000
    C272    C    0.13202   0.29239   0.38216   1.000
    C273    C    0.63203   0.29239   0.38215   1.000
    C274    C    0.06673   0.30246   0.37729   1.000
    C275    C    0.56674   0.30246   0.37727   1.000
    C276    C    0.11088   0.12140   0.21785   1.000
    C277    C    0.61089   0.12140   0.21780   1.000
    C278    C    0.14506   0.18148   0.16858   1.000
    C279    C    0.64507   0.18148   0.16858   1.000
    C280    C    0.14486   0.17626   0.07628   1.000
    C281    C    0.64487   0.17626   0.07628   1.000
    C282    C    0.07913   0.06013   0.07721   1.000
    C283    C    0.57914   0.06014   0.07720   1.000
    C284    C    0.07647   0.06027   0.16973   1.000
    C285    C    0.57648   0.06028   0.16973   1.000
    C286    C    0.48973   0.90694   0.64273   1.000
    C287    C    0.98974   0.90694   0.64273   1.000
    C288    C    0.46852   0.81211   0.62939   1.000
    C289    C    0.96853   0.81211   0.62938   1.000
    C290    C    0.38203   0.70761   0.61782   1.000
    C291    C    0.88204   0.70761   0.61782   1.000
    C292    C    0.31674   0.69752   0.62269   1.000
    C293    C    0.81675   0.69752   0.62270   1.000
    C294    C    0.36091   0.87859   0.78216   1.000
    C295    C    0.86092   0.87859   0.78217   1.000
    C296    C    0.39509   0.81854   0.83140   1.000
    C297    C    0.89510   0.81854   0.83141   1.000
    C298    C    0.39488   0.82378   0.92370   1.000
    C299    C    0.89489   0.82377   0.92370   1.000
    C300    C    0.32917   0.93986   0.92283   1.000
    C301    C    0.82918   0.93986   0.92283   1.000
    C302    C    0.32651   0.93971   0.83031   1.000
    C303    C    0.82652   0.93971   0.83031   1.000
    S304    S    0.38969   0.33533   0.11841   1.000
    S305    S    0.88970   0.33533   0.11841   1.000
    S306    S    0.13964   0.66473   0.88140   1.000
    S307    S    0.63964   0.66474   0.88148   1.000
    S308    S    0.26468   0.38159   0.83525   1.000
    S309    S    0.76469   0.38159   0.83525   1.000
    S310    S    0.01464   0.61849   0.16460   1.000
    S311    S    0.51465   0.61850   0.16468   1.000
    S312    S    0.48537   0.16467   0.61840   1.000
    S313    S    0.98538   0.16468   0.61840   1.000
    S314    S    0.23532   0.83533   0.38156   1.000
    S315    S    0.73532   0.83533   0.38156   1.000
    S316    S    0.11032   0.11843   0.33529   1.000
    S317    S    0.61033   0.11843   0.33529   1.000
    S318    S    0.36036   0.88156   0.66472   1.000
    S319    S    0.86037   0.88156   0.66472   1.000
    N320    N    0.38678   0.02989   0.11625   1.000
    N321    N    0.88679   0.02989   0.11625   1.000
    N322    N    0.13674   0.97017   0.88370   1.000
    N323    N    0.63674   0.97018   0.88369   1.000
    N324    N    0.26175   0.38377   0.52986   1.000
    N325    N    0.76176   0.38376   0.52985   1.000
    N326    N    0.01175   0.61628   0.47008   1.000
    N327    N    0.51175   0.61628   0.47008   1.000
    N328    N    0.48826   0.47011   0.61624   1.000
    N329    N    0.98828   0.47013   0.61625   1.000
    N330    N    0.23825   0.52989   0.38375   1.000
    N331    N    0.73826   0.52989   0.38370   1.000
    N332    N    0.11323   0.11626   0.02989   1.000
    N333    N    0.61324   0.11626   0.02989   1.000
    N334    N    0.36326   0.88376   0.97012   1.000
    N335    N    0.86327   0.88376   0.97012   1.000
    O336    O    0.24249   0.38573   0.24577   1.000
    O337    O    0.74250   0.38574   0.24576   1.000
    O338    O    0.33987   0.40198   0.36273   1.000
    O339    O    0.83988   0.40198   0.36273   1.000
    O340    O    0.49246   0.61430   0.75419   1.000
    O341    O    0.99247   0.61432   0.75400   1.000
    O342    O    0.08986   0.59807   0.63719   1.000
    O343    O    0.58987   0.59808   0.63719   1.000
    O344    O    0.11747   0.25423   0.88570   1.000
    O345    O    0.61748   0.25424   0.88576   1.000
    O346    O    0.21486   0.13726   0.90193   1.000
    O347    O    0.71487   0.13726   0.90193   1.000
    O348    O    0.36747   0.74579   0.11428   1.000
    O349    O    0.86748   0.74579   0.11420   1.000
    O350    O    0.46488   0.86281   0.09803   1.000
    O351    O    0.96489   0.86280   0.09803   1.000
    O352    O    0.13253   0.11429   0.74576   1.000
    O353    O    0.63254   0.11431   0.74575   1.000
    O354    O    0.03513   0.09805   0.86276   1.000
    O355    O    0.53514   0.09803   0.86275   1.000
    O356    O    0.38253   0.88579   0.25421   1.000
    O357    O    0.88253   0.88580   0.25421   1.000
    O358    O    0.28514   0.90198   0.13725   1.000
    O359    O    0.78515   0.90198   0.13725   1.000
    O360    O    0.25752   0.24578   0.38571   1.000
    O361    O    0.75753   0.24578   0.38571   1.000
    O362    O    0.16013   0.36277   0.40196   1.000
    O363    O    0.66014   0.36277   0.40196   1.000
    O364    O    0.00753   0.75425   0.61424   1.000
    O365    O    0.50754   0.75425   0.61425   1.000
    O366    O    0.41014   0.63724   0.59803   1.000
    O367    O    0.91015   0.63724   0.59800   1.000
loop_
    _geom_bond_atom_site_label_1
    _geom_bond_atom_site_label_2
    _geom_bond_distance
    _geom_bond_site_symmetry_2
    _ccdc_geom_bond_type
    H19    C186      1.09125      .   S
    H18    C185      1.09045      .   S
    H17    C184      1.09032      .   S
    H16    C183      1.09031      .   S
    N332   C280      1.34931      .   S
    N332   C282      1.35097      .   S
    N333   C281      1.34931      .   S
    N333   C283      1.35091      .   S
    H144   C281      1.08780      .   S
    H143   C280      1.08781      .   S
    H146   C283      1.09029      .   S
    H145   C282      1.09038      .   S
    H2     C169      1.09791      .   S
    H3     C170      1.09792      .   S
    C183   C185      1.38752      .   S
    C183   N320      1.35102      .   S
    C184   C186      1.38753      .   S
    C184   N321      1.35101      .   S
    C186   C178      1.40906      .   S
    C185   C177      1.40905      .   S
    H5     C170      1.10001      .   S
    H4     C169      1.09993      .   S
    C280   C278      1.38505      .   S
    C281   C279      1.38504      .   S
    C283   C285      1.38762      .   S
    C282   C284      1.38747      .   S
    H68    C225      1.09741      .   S
    H69    C226      1.09732      .   S
    H1     C170      1.09563      .   S
    H0     C169      1.09562      .   S
    C170   C172      1.51521      .   S
    C169   C171      1.51522      .   S
    H70    C225      1.09364      .   S
    H71    C226      1.09362      .   S
    O351   C224      1.27203      .   S
    O350   C223      1.27203      .   S
    H63    C220      1.10644      .   S
    H62    C219      1.09793      .   S
    O349   C222      1.26902      .   S
    O348   C221      1.26879      .   S
    N320   C181      1.34925      .   S
    N321   C182      1.34927      .   S
    C224   C225      1.51193  1_655   S
    C223   C226      1.51230      .   S
    S305   C178      1.76016      .   S
    S304   C177      1.76016      .   S
    C178   C180      1.40474      .   S
    C177   C179      1.40475      .   S
    C226   H67       1.09994      .   S
    C225   H66       1.09982      .   S
    H61    C220      1.09567      .   S
    H60    C219      1.09560      .   S
    C222   C220      1.51526      .   S
    C221   C219      1.51526      .   S
    H114   C256      1.09365      .   S
    H115   C257      1.09364      .   S
    O359   C255      1.27206      .   S
    O358   C254      1.27206      .   S
    C220   H65       1.09992      .   S
    C219   H64       1.09992      .   S
    S310   C227      1.76128      .   S
    S311   C228      1.76008      .   S
    C278   H141      1.08948      .   S
    C278   C276      1.40472      .   S
    C279   H142      1.08946      .   S
    C279   C277      1.40434      .   S
    C285   H148      1.09041      .   S
    C285   C277      1.40874      .   S
    C284   H147      1.08983      .   S
    C284   C276      1.40915      .   S
    C181   C179      1.38503      .   S
    C181   H14       1.08783      .   S
    C182   C180      1.38503      .   S
    C182   H15       1.08784      .   S
    C179   H12       1.08950      .   S
    C180   H13       1.08951      .   S
    C171   O336      1.26884      .   S
    C172   O337      1.26875      .   S
    C256   H110      1.09987      .   S
    C256   C254      1.51232      .   S
    C256   H112      1.09735      .   S
    C257   H111      1.09987      .   S
    C257   C255      1.51232      .   S
    C257   H113      1.09735      .   S
    C277   S317      1.76085      .   S
    C276   S316      1.76010      .   S
    H8     C175      1.09735      .   S
    H9     C176      1.09727      .   S
    O357   C253      1.26803      .   S
    O356   C252      1.26875      .   S
    H116   C260      1.08949      .   S
    H117   C261      1.08910      .   S
    H119   C263      1.08812      .   S
    H118   C262      1.08718      .   S
    C227   C235      1.40913      .   S
    C227   C230      1.40449  1_455   S
    C228   C236      1.40914      .   S
    C228   C229      1.40471      .   S
    H133   C268      1.09993      .   S
    H134   C269      1.09995      .   S
    C174   C176      1.51231      .   S
    C174   O339      1.27195      .   S
    C173   C175      1.51230      .   S
    C173   O338      1.27195      .   S
    H79    C236      1.09043      .   S
    H78    C235      1.09043      .   S
    H7     C176      1.09986      .   S
    H6     C175      1.09987      .   S
    H73    C230      1.08951      .   S
    H72    C229      1.08943      .   S
    C175   H10       1.09366      .   S
    C176   H11       1.09324      .   S
    H136   C275      1.09979      .   S
    H135   C274      1.09993      .   S
    C253   C251      1.51632      .   S
    C252   C250      1.51536      .   S
    C261   C263      1.38505      .   S
    C261   C259      1.40502      .   S
    C260   C262      1.38496      .   S
    C260   C258      1.40472      .   S
    C262   N330      1.34994      .   S
    C263   N331      1.34876      .   S
    C236   C234      1.38746      .   S
    C235   C233      1.38746      .   S
    C230   C232      1.38508      .   S
    C229   C231      1.38508      .   S
    C268   C270      1.51529      .   S
    C268   H129      1.09564      .   S
    C268   H131      1.09792      .   S
    C269   C271      1.51527      .   S
    C269   H130      1.09561      .   S
    C269   H132      1.09792      .   S
    C271   O361      1.26881      .   S
    C270   O360      1.26878      .   S
    C275   C273      1.51230      .   S
    C275   H140      1.09368      .   S
    C275   H138      1.09738      .   S
    C274   C272      1.51232      .   S
    C274   H139      1.09359      .   S
    C274   H137      1.09730      .   S
    C259   S315      1.76016      .   S
    C259   C267      1.40916      .   S
    C258   S314      1.76015      .   S
    C258   C266      1.40906      .   S
    C273   O363      1.27206      .   S
    C272   O362      1.27206      .   S
    N331   C265      1.35148      .   S
    N330   C264      1.35102      .   S
    C250   H104      1.09563      .   S
    C250   H108      1.09990      .   S
    C250   H106      1.09787      .   S
    C251   H105      1.09564      .   S
    C251   H109      1.09995      .   S
    C251   H107      1.09788      .   S
    C234   H77       1.09033      .   S
    C234   N327      1.35099      .   S
    C233   H76       1.09033      .   S
    C233   N326      1.35100      .   S
    C232   H75       1.08779      .   S
    C232   N326      1.34910  1_655   S
    C231   H74       1.08778      .   S
    C231   N327      1.34931      .   S
    C266   C264      1.38753      .   S
    C266   H122      1.09043      .   S
    C267   C265      1.38751      .   S
    C267   H123      1.09043      .   S
    C265   H121      1.09034      .   S
    C264   H120      1.08947      .   S
    H102   C248      1.09040      .   S
    H103   C249      1.09028      .   S
    H100   C246      1.09029      .   S
    H101   C247      1.09038      .   S
    N325   C214      1.34929      .   S
    N325   C216      1.35102      .   S
    N324   C213      1.34877      .   S
    N324   C215      1.35094      .   S
    H55    C214      1.08778      .   S
    H54    C213      1.08729      .   S
    H57    C216      1.09036      .   S
    H56    C215      1.09030      .   S
    H82    C237      1.09788      .   S
    H83    C238      1.09791      .   S
    C246   C248      1.38752      .   S
    C246   N328      1.35095      .   S
    C247   C249      1.38752      .   S
    C247   N329      1.35099      .   S
    C249   C127      1.40922      .   S
    C248   C126      1.40886      .   S
    H85    C238      1.09992      .   S
    H84    C237      1.09990      .   S
    C213   C211      1.38597      .   S
    C214   C212      1.38507      .   S
    C215   C217      1.38752      .   S
    C216   C218      1.38752      .   S
    H157   C292      1.09738      .   S
    H158   C293      1.09720      .   S
    H81    C238      1.09562      .   S
    H80    C237      1.09562      .   S
    C238   C240      1.51533      .   S
    C237   C239      1.51529      .   S
    H159   C292      1.09365      .   S
    H160   C293      1.09356      .   S
    O367   C291      1.27214      .   S
    O366   C290      1.27204      .   S
    H152   C287      1.09790      .   S
    H151   C286      1.09788      .   S
    O364   C289      1.26851  1_455   S
    O365   C288      1.26879      .   S
    N328   C245      1.34934      .   S
    N329   C244      1.34909  1_655   S
    C290   C292      1.51230      .   S
    C291   C293      1.51229      .   S
    S312   C126      1.76019      .   S
    S313   C127      1.76019      .   S
    C126   C243      1.40495      .   S
    C127   C128      1.40454  1_655   S
    C292   H155      1.09994      .   S
    C293   H156      1.10003      .   S
    H150   C286      1.09585      .   S
    H149   C287      1.09523  1_455   S
    C289   C287      1.51527      .   S
    C288   C286      1.51528      .   S
    H31    C194      1.09355      .   S
    H30    C193      1.09362      .   S
    O343   C192      1.27195      .   S
    O342   C191      1.27206      .   S
    C287   H154      1.10002      .   S
    C286   H153      1.10002      .   S
    S318   C294      1.76010      .   S
    S319   C295      1.76025      .   S
    C211   H52       1.08949      .   S
    C211   C209      1.40474      .   S
    C212   H53       1.08889      .   S
    C212   C210      1.40466      .   S
    C217   H58       1.09041      .   S
    C217   C209      1.40912      .   S
    C218   H59       1.09041      .   S
    C218   C210      1.40905      .   S
    C245   C243      1.38504      .   S
    C245   H99       1.08779      .   S
    C244   C128      1.38504      .   S
    C244   H98       1.08779      .   S
    C243   H97       1.08949      .   S
    C128   H96       1.08951      .   S
    C239   O352      1.26881      .   S
    C240   O353      1.26872      .   S
    C194   H27       1.09986      .   S
    C194   C192      1.51228      .   S
    C194   H29       1.09737      .   S
    C193   H26       1.09989      .   S
    C193   C191      1.51229      .   S
    C193   H28       1.09741      .   S
    C210   S309      1.76025      .   S
    C209   S308      1.76010      .   S
    H88    C124      1.09742      .   S
    H89    C125      1.09739      .   S
    O341   C189      1.27053  1_655   S
    O340   C190      1.26886      .   S
    H33    C94       1.08946      .   S
    H32    C93       1.08944      .   S
    H35    C196      1.09243      .   S
    H34    C95       1.08785      .   S
    C294   C302      1.40914      .   S
    C294   C296      1.40472      .   S
    C295   C303      1.40907      .   S
    C295   C297      1.40473      .   S
    H44    C201      1.09995      .   S
    H45    C202      1.09995      .   S
    C242   C124      1.51230      .   S
    C242   O355      1.27199      .   S
    C241   C125      1.51192  1_455   S
    C241   O354      1.27198      .   S
    H168   C303      1.09099      .   S
    H167   C302      1.09044      .   S
    H87    C125      1.09989      .   S
    H86    C124      1.09988      .   S
    H161   C296      1.08946      .   S
    H162   C297      1.08952      .   S
    C124   H90       1.09360      .   S
    C125   H91       1.09355      .   S
    H47    C208      1.09989      .   S
    H46    C207      1.10054      .   S
    C190   C188      1.51527      .   S
    C189   C187      1.51524      .   S
    C94    C196      1.38502      .   S
    C94    C92       1.40467      .   S
    C93    C95       1.38503      .   S
    C93    C195      1.40469      .   S
    C196   N323      1.34928      .   S
    C95    N322      1.34931      .   S
    C302   C300      1.38751      .   S
    C303   C301      1.38751      .   S
    C296   C298      1.38505      .   S
    C297   C299      1.38490      .   S
    C201   C203      1.51527      .   S
    C201   H40       1.09559      .   S
    C201   H42       1.09788      .   S
    C202   C204      1.51529      .   S
    C202   H41       1.09560      .   S
    C202   H43       1.09789      .   S
    C203   O344      1.26868      .   S
    C204   O345      1.26881      .   S
    C208   C206      1.51232      .   S
    C208   H51       1.09365      .   S
    C208   H49       1.09737      .   S
    C207   C205      1.51231      .   S
    C207   H50       1.09365      .   S
    C207   H48       1.09733      .   S
    C92    S307      1.76015      .   S
    C92    C200      1.40912      .   S
    C195   S306      1.76013      .   S
    C195   C199      1.40914      .   S
    C206   O347      1.27203      .   S
    C205   O346      1.27201      .   S
    N323   C198      1.35098      .   S
    N322   C197      1.35097      .   S
    C188   H20       1.09561      .   S
    C188   H25       1.09990      .   S
    C188   H23       1.09790      .   S
    C187   H21       1.09526  1_455   S
    C187   H24       1.09992      .   S
    C187   H22       1.09793      .   S
    C301   H166      1.08977      .   S
    C301   N335      1.35099      .   S
    C300   H165      1.09033      .   S
    C300   N334      1.35099      .   S
    C298   H163      1.08782      .   S
    C298   N334      1.34933      .   S
    C299   H164      1.08781      .   S
    C299   N335      1.34934      .   S
    C200   C198      1.38751      .   S
    C200   H39       1.09043      .   S
    C199   C197      1.38752      .   S
    C199   H38       1.09038      .   S
    C198   H37       1.09037      .   S
    C197   H36       1.09029      .   S
