# CIF file generated by openbabel 2.4.90, see http://openbabel.sf.net
data_I
_chemical_name_common ''
_cell_length_a 23.02
_cell_length_b 14.98
_cell_length_c 14.982
_cell_angle_alpha 90.008
_cell_angle_beta 89.98
_cell_angle_gamma 90.016
_space_group_name_H-M_alt 'P 1'
_space_group_name_Hall 'P 1'
loop_
    _symmetry_equiv_pos_as_xyz
    x,y,z
loop_
    _atom_site_label
    _atom_site_type_symbol
    _atom_site_fract_x
    _atom_site_fract_y
    _atom_site_fract_z
    _atom_site_occupancy
    C0      C    0.34245   0.36548   0.20684   1.000
    C1      C    0.84246   0.36548   0.20684   1.000
    C2      C    0.09241   0.63456   0.79308   1.000
    C3      C    0.59242   0.63457   0.79308   1.000
    C4      C    0.21743   0.29316   0.86543   1.000
    C5      C    0.71744   0.29316   0.86543   1.000
    C6      C    0.46742   0.70691   0.13456   1.000
    C7      C    0.96743   0.70691   0.13455   1.000
    C8      C    0.03259   0.13456   0.70689   1.000
    C9      C    0.53259   0.13455   0.70688   1.000
    C10     C    0.28257   0.86549   0.29314   1.000
    C11     C    0.78257   0.86549   0.29310   1.000
    C12     C    0.15756   0.20687   0.36544   1.000
    C13     C    0.65757   0.20686   0.36544   1.000
    C14     C    0.40759   0.79314   0.63454   1.000
    C15     C    0.90760   0.79314   0.63454   1.000
