# CIF file generated by openbabel 2.4.90, see http://openbabel.sf.net
data_I
_chemical_name_common ''
_cell_length_a 23.02
_cell_length_b 14.98
_cell_length_c 14.982
_cell_angle_alpha 90.008
_cell_angle_beta 89.98
_cell_angle_gamma 90.016
_space_group_name_H-M_alt 'P 1'
_space_group_name_Hall 'P 1'
loop_
    _symmetry_equiv_pos_as_xyz
    x,y,z
loop_
    _atom_site_label
    _atom_site_type_symbol
    _atom_site_fract_x
    _atom_site_fract_y
    _atom_site_fract_z
    _atom_site_occupancy
    H0      H    0.21393   0.37331   0.09066   1.000
    H1      H    0.71394   0.37332   0.09065   1.000
    H2      H    0.28418   0.39899   0.04525   1.000
    H3      H    0.78419   0.39900   0.04525   1.000
    H4      H    0.26667   0.28766   0.07182   1.000
    H5      H    0.76669   0.28767   0.07180   1.000
    H6      H    0.44784   0.30757   0.29756   1.000
    H7      H    0.94785   0.30756   0.29756   1.000
    H8      H    0.45625   0.41457   0.25014   1.000
    H9      H    0.95626   0.41456   0.25015   1.000
    H10     H    0.44523   0.40353   0.36803   1.000
    H11     H    0.94524   0.40351   0.36800   1.000
    H12     H    0.32840   0.20192   0.23160   1.000
    H13     H    0.82840   0.20192   0.23160   1.000
    H14     H    0.32869   0.03661   0.22147   1.000
    H15     H    0.82870   0.03661   0.22147   1.000
    H16     H    0.44688   0.03848   0.01320   1.000
    H17     H    0.94689   0.03848   0.01320   1.000
    H18     H    0.45210   0.20349   0.01298   1.000
    H19     H    0.95211   0.20349   0.01290   1.000
    H20     H    0.46386   0.62672   0.90930   1.000
    H21     H    0.96387   0.62672   0.90932   1.000
    H22     H    0.03408   0.60104   0.95470   1.000
    H23     H    0.53409   0.60104   0.95470   1.000
    H24     H    0.01663   0.71237   0.92814   1.000
    H25     H    0.51663   0.71237   0.92813   1.000
    H26     H    0.19785   0.69247   0.70231   1.000
    H27     H    0.69784   0.69252   0.70230   1.000
    H28     H    0.20620   0.58548   0.74974   1.000
    H29     H    0.70622   0.58551   0.74972   1.000
    H30     H    0.19522   0.59651   0.63185   1.000
    H31     H    0.69523   0.59656   0.63184   1.000
    H32     H    0.07838   0.79811   0.76835   1.000
    H33     H    0.57838   0.79812   0.76834   1.000
    H34     H    0.07867   0.96342   0.77851   1.000
    H35     H    0.57868   0.96343   0.77800   1.000
    H36     H    0.19681   0.96160   0.98672   1.000
    H37     H    0.69682   0.96162   0.98671   1.000
    H38     H    0.20202   0.79659   0.98690   1.000
    H39     H    0.70203   0.79660   0.98690   1.000
    H40     H    0.08890   0.40934   0.87327   1.000
    H41     H    0.58891   0.40935   0.87329   1.000
    H42     H    0.15913   0.45479   0.89892   1.000
    H43     H    0.65915   0.45479   0.89893   1.000
    H44     H    0.14167   0.42815   0.78762   1.000
    H45     H    0.64168   0.42816   0.78763   1.000
    H46     H    0.32287   0.20242   0.80750   1.000
    H47     H    0.82286   0.20242   0.80749   1.000
    H48     H    0.33122   0.24989   0.91453   1.000
    H49     H    0.83123   0.24987   0.91449   1.000
    H50     H    0.32022   0.13198   0.90350   1.000
    H51     H    0.82022   0.13196   0.90343   1.000
    H52     H    0.20337   0.26840   0.70189   1.000
    H53     H    0.70338   0.26840   0.70180   1.000
    H54     H    0.20365   0.27855   0.53660   1.000
    H55     H    0.70366   0.27855   0.53660   1.000
    H56     H    0.32187   0.48681   0.53842   1.000
    H57     H    0.82187   0.48681   0.53841   1.000
    H58     H    0.32709   0.48702   0.70340   1.000
    H59     H    0.82710   0.48701   0.70340   1.000
    H60     H    0.33887   0.59066   0.12672   1.000
    H61     H    0.83888   0.59065   0.12670   1.000
    H62     H    0.40911   0.54527   0.10099   1.000
    H63     H    0.90912   0.54527   0.10000   1.000
    H64     H    0.39163   0.57184   0.21232   1.000
    H65     H    0.89164   0.57183   0.21232   1.000
    H66     H    0.07282   0.79769   0.19245   1.000
    H67     H    0.57283   0.79770   0.19246   1.000
    H68     H    0.08123   0.75026   0.08545   1.000
    H69     H    0.58123   0.75027   0.08546   1.000
    H70     H    0.07024   0.86816   0.09652   1.000
    H71     H    0.57024   0.86817   0.09653   1.000
    H72     H    0.45337   0.73164   0.29814   1.000
    H73     H    0.95338   0.73164   0.29813   1.000
    H74     H    0.45368   0.72149   0.46342   1.000
    H75     H    0.95369   0.72149   0.46342   1.000
    H76     H    0.07184   0.51327   0.46142   1.000
    H77     H    0.57185   0.51326   0.46142   1.000
    H78     H    0.07704   0.51308   0.29643   1.000
    H79     H    0.57705   0.51308   0.29643   1.000
    H80     H    0.16114   0.12674   0.59064   1.000
    H81     H    0.66114   0.12670   0.59063   1.000
    H82     H    0.09091   0.10101   0.54526   1.000
    H83     H    0.59091   0.10098   0.54526   1.000
    H84     H    0.10837   0.21235   0.57184   1.000
    H85     H    0.60839   0.21233   0.57180   1.000
    H86     H    0.42717   0.19242   0.79767   1.000
    H87     H    0.92720   0.19250   0.79766   1.000
    H88     H    0.41879   0.08542   0.75021   1.000
    H89     H    0.91879   0.08548   0.75025   1.000
    H90     H    0.42977   0.09646   0.86810   1.000
    H91     H    0.92978   0.09656   0.86813   1.000
    C92     C    0.63909   0.78220   0.87852   1.000
    C93     C    0.10492   0.83144   0.81849   1.000
    C94     C    0.60492   0.83145   0.81848   1.000
    C95     C    0.10512   0.92375   0.82373   1.000
    H96     H    0.04663   0.29816   0.73161   1.000
    H97     H    0.54664   0.29815   0.73160   1.000
    H98     H    0.04632   0.46347   0.72144   1.000
    H99     H    0.54633   0.46345   0.72143   1.000
    H100    H    0.42818   0.46146   0.51324   1.000
    H101    H    0.92819   0.46147   0.51324   1.000
    H102    H    0.42298   0.29644   0.51306   1.000
    H103    H    0.92299   0.29645   0.51306   1.000
    H104    H    0.41109   0.87334   0.40931   1.000
    H105    H    0.91110   0.87335   0.40931   1.000
    H106    H    0.34085   0.89900   0.45474   1.000
    H107    H    0.84086   0.89901   0.45474   1.000
    H108    H    0.35832   0.78768   0.42811   1.000
    H109    H    0.85833   0.78769   0.42812   1.000
    H110    H    0.17716   0.80753   0.20242   1.000
    H111    H    0.67717   0.80753   0.20242   1.000
    H112    H    0.16877   0.91455   0.24984   1.000
    H113    H    0.66878   0.91454   0.24984   1.000
    H114    H    0.17979   0.90347   0.13195   1.000
    H115    H    0.67979   0.90346   0.13195   1.000
    H116    H    0.29662   0.70194   0.26839   1.000
    H117    H    0.79663   0.70194   0.26839   1.000
    H118    H    0.29635   0.53663   0.27854   1.000
    H119    H    0.79635   0.53663   0.27850   1.000
    H120    H    0.17814   0.53846   0.48670   1.000
    H121    H    0.67814   0.53846   0.48678   1.000
    H122    H    0.17291   0.70347   0.48699   1.000
    H123    H    0.67291   0.70347   0.48699   1.000
    C124    C    0.44174   0.12267   0.80250   1.000
    C125    C    0.94175   0.12274   0.80252   1.000
    C126    C    0.48592   0.28213   0.62140   1.000
    C127    C    0.98593   0.28214   0.62143   1.000
    C128    C    0.02008   0.33145   0.68147   1.000
    H129    H    0.28609   0.09066   0.37326   1.000
    H130    H    0.78609   0.09066   0.37327   1.000
    H131    H    0.21584   0.04524   0.39895   1.000
    H132    H    0.71585   0.04524   0.39896   1.000
    H133    H    0.23333   0.07182   0.28763   1.000
    H134    H    0.73335   0.07181   0.28764   1.000
    H135    H    0.05217   0.29760   0.30754   1.000
    H136    H    0.55218   0.29760   0.30753   1.000
    H137    H    0.04376   0.25018   0.41453   1.000
    H138    H    0.54377   0.25018   0.41452   1.000
    H139    H    0.05477   0.36808   0.40348   1.000
    H140    H    0.55478   0.36808   0.40347   1.000
    H141    H    0.17162   0.23163   0.20189   1.000
    H142    H    0.67163   0.23163   0.20189   1.000
    H143    H    0.17132   0.22150   0.03660   1.000
    H144    H    0.67133   0.22150   0.03660   1.000
    H145    H    0.05313   0.01320   0.03849   1.000
    H146    H    0.55314   0.01321   0.03849   1.000
    H147    H    0.04792   0.01299   0.20340   1.000
    H148    H    0.54793   0.01299   0.20348   1.000
    H149    H    0.03613   0.90939   0.62668   1.000
    H150    H    0.53614   0.90939   0.62660   1.000
    H151    H    0.46591   0.95478   0.60102   1.000
    H152    H    0.96592   0.95479   0.60102   1.000
    H153    H    0.48337   0.92821   0.71233   1.000
    H154    H    0.98338   0.92821   0.71233   1.000
    H155    H    0.30215   0.70236   0.69244   1.000
    H156    H    0.80217   0.70237   0.69246   1.000
    H157    H    0.29380   0.74981   0.58545   1.000
    H158    H    0.79380   0.74979   0.58548   1.000
    H159    H    0.30478   0.63190   0.59648   1.000
    H160    H    0.80478   0.63189   0.59652   1.000
    H161    H    0.42163   0.76840   0.79807   1.000
    H162    H    0.92164   0.76840   0.79807   1.000
    H163    H    0.42134   0.77855   0.96336   1.000
    H164    H    0.92134   0.77855   0.96336   1.000
    H165    H    0.30318   0.98678   0.96157   1.000
    H166    H    0.80319   0.98678   0.96150   1.000
    H167    H    0.29796   0.98698   0.79658   1.000
    H168    H    0.79797   0.98698   0.79650   1.000
    C169    C    0.26033   0.35726   0.09309   1.000
    C170    C    0.76034   0.35727   0.09309   1.000
    C171    C    0.28152   0.37061   0.18790   1.000
    C172    C    0.78153   0.37061   0.18790   1.000
    C173    C    0.34245   0.36548   0.20684   1.000
    C174    C    0.84246   0.36548   0.20684   1.000
    C175    C    0.36799   0.38219   0.29236   1.000
    C176    C    0.86800   0.38219   0.29236   1.000
    C177    C    0.43328   0.37732   0.30242   1.000
    C178    C    0.93328   0.37731   0.30242   1.000
    C179    C    0.38913   0.21787   0.12138   1.000
    C180    C    0.88914   0.21787   0.12138   1.000
    C181    C    0.35495   0.16860   0.18145   1.000
    C182    C    0.85496   0.16860   0.18145   1.000
    C183    C    0.35515   0.07629   0.17623   1.000
    C184    C    0.85516   0.07629   0.17623   1.000
    C185    C    0.42088   0.07721   0.06012   1.000
    C186    C    0.92089   0.07721   0.06012   1.000
    C187    C    0.42354   0.16974   0.06026   1.000
    C188    C    0.92355   0.16974   0.06026   1.000
    C189    C    0.01026   0.64277   0.90687   1.000
    C190    C    0.51027   0.64277   0.90687   1.000
    C191    C    0.03148   0.62943   0.81205   1.000
    C192    C    0.53148   0.62942   0.81205   1.000
    C193    C    0.09241   0.63456   0.79308   1.000
    C194    C    0.59242   0.63457   0.79308   1.000
    C195    C    0.11797   0.61785   0.70756   1.000
    C196    C    0.61798   0.61786   0.70755   1.000
    C197    C    0.18326   0.62272   0.69746   1.000
    C198    C    0.68326   0.62276   0.69745   1.000
    C199    C    0.13908   0.78219   0.87853   1.000
    C200    C    0.60513   0.92376   0.82371   1.000
    C201    C    0.17082   0.92286   0.93981   1.000
    C202    C    0.67083   0.92288   0.93979   1.000
    C203    C    0.17348   0.83033   0.93965   1.000
    C204    C    0.67349   0.83034   0.93964   1.000
    C205    C    0.13531   0.40692   0.85722   1.000
    C206    C    0.63532   0.40692   0.85723   1.000
    C207    C    0.15651   0.31210   0.87058   1.000
    C208    C    0.65651   0.31211   0.87059   1.000
    C209    C    0.21743   0.29316   0.86543   1.000
    C210    C    0.71744   0.29316   0.86543   1.000
    C211    C    0.24298   0.20764   0.88215   1.000
    C212    C    0.74299   0.20764   0.88213   1.000
    C213    C    0.30827   0.19758   0.87729   1.000
    C214    C    0.80828   0.19757   0.87724   1.000
    C215    C    0.26411   0.37861   0.71781   1.000
    C216    C    0.76412   0.37861   0.71780   1.000
    C217    C    0.22992   0.31855   0.66856   1.000
    C218    C    0.72993   0.31855   0.66856   1.000
    C219    C    0.23012   0.32378   0.57620   1.000
    C220    C    0.73013   0.32378   0.57626   1.000
    C221    C    0.29586   0.43989   0.57715   1.000
    C222    C    0.79587   0.43989   0.57715   1.000
    C223    C    0.29853   0.43974   0.66967   1.000
    C224    C    0.79854   0.43974   0.66967   1.000
    C225    C    0.38528   0.59311   0.14274   1.000
    C226    C    0.88529   0.59310   0.14274   1.000
    C227    C    0.40649   0.68794   0.12941   1.000
    C228    C    0.90650   0.68794   0.12941   1.000
    C229    C    0.46742   0.70691   0.13456   1.000
    C230    C    0.96743   0.70691   0.13455   1.000
    C231    C    0.49298   0.79244   0.11783   1.000
    C232    C    0.99299   0.79244   0.11783   1.000
    C233    C    0.05826   0.80254   0.12271   1.000
    C234    C    0.55827   0.80254   0.12271   1.000
    C235    C    0.01409   0.62145   0.28212   1.000
    C236    C    0.51409   0.62146   0.28212   1.000
    C237    C    0.47992   0.68150   0.33142   1.000
    C238    C    0.97993   0.68150   0.33142   1.000
    C239    C    0.48013   0.67627   0.42372   1.000
    C240    C    0.98014   0.67627   0.42372   1.000
    C241    C    0.04584   0.56018   0.42273   1.000
    C242    C    0.54584   0.56018   0.42273   1.000
    C243    C    0.04849   0.56034   0.33021   1.000
    C244    C    0.54850   0.56034   0.33021   1.000
    C245    C    0.11473   0.14276   0.59309   1.000
    C246    C    0.61474   0.14274   0.59308   1.000
    C247    C    0.09352   0.12941   0.68791   1.000
    C248    C    0.59352   0.12943   0.68791   1.000
    C249    C    0.03259   0.13456   0.70689   1.000
    C250    C    0.53259   0.13455   0.70688   1.000
    C251    C    0.00703   0.11784   0.79241   1.000
    C252    C    0.50703   0.11783   0.79240   1.000
    C253    C    0.52009   0.33144   0.68146   1.000
    C254    C    0.01988   0.42376   0.67623   1.000
    C255    C    0.51989   0.42375   0.67622   1.000
    C256    C    0.45418   0.42276   0.56015   1.000
    C257    C    0.95419   0.42277   0.56016   1.000
    C258    C    0.45152   0.33022   0.56031   1.000
    C259    C    0.95153   0.33023   0.56030   1.000
    C260    C    0.36468   0.85729   0.40688   1.000
    C261    C    0.86469   0.85730   0.40688   1.000
    C262    C    0.34349   0.87065   0.31207   1.000
    C263    C    0.84350   0.87065   0.31200   1.000
    C264    C    0.28257   0.86549   0.29314   1.000
    C265    C    0.78257   0.86549   0.29310   1.000
    C266    C    0.25702   0.88219   0.20763   1.000
    C267    C    0.75703   0.88219   0.20763   1.000
    C268    C    0.19174   0.87729   0.19756   1.000
    C269    C    0.69174   0.87729   0.19756   1.000
    C270    C    0.23588   0.71787   0.37860   1.000
    C271    C    0.73589   0.71787   0.37859   1.000
    C272    C    0.27007   0.66861   0.31854   1.000
    C273    C    0.77008   0.66861   0.31850   1.000
    C274    C    0.26988   0.57630   0.32370   1.000
    C275    C    0.76988   0.57630   0.32376   1.000
    C276    C    0.20414   0.57719   0.43987   1.000
    C277    C    0.70415   0.57719   0.43986   1.000
    C278    C    0.20147   0.66973   0.43972   1.000
    C279    C    0.70147   0.66973   0.43972   1.000
    C280    C    0.23968   0.09309   0.35722   1.000
    C281    C    0.73969   0.09309   0.35723   1.000
    C282    C    0.21849   0.18791   0.37058   1.000
    C283    C    0.71850   0.18791   0.37057   1.000
    C284    C    0.15756   0.20687   0.36544   1.000
    C285    C    0.65757   0.20686   0.36544   1.000
    C286    C    0.13202   0.29239   0.38216   1.000
    C287    C    0.63203   0.29239   0.38215   1.000
    C288    C    0.06673   0.30246   0.37729   1.000
    C289    C    0.56674   0.30246   0.37727   1.000
    C290    C    0.11088   0.12140   0.21785   1.000
    C291    C    0.61089   0.12140   0.21780   1.000
    C292    C    0.14506   0.18148   0.16858   1.000
    C293    C    0.64507   0.18148   0.16858   1.000
    C294    C    0.14486   0.17626   0.07628   1.000
    C295    C    0.64487   0.17626   0.07628   1.000
    C296    C    0.07913   0.06013   0.07721   1.000
    C297    C    0.57914   0.06014   0.07720   1.000
    C298    C    0.07647   0.06027   0.16973   1.000
    C299    C    0.57648   0.06028   0.16973   1.000
    C300    C    0.48973   0.90694   0.64273   1.000
    C301    C    0.98974   0.90694   0.64273   1.000
    C302    C    0.46852   0.81211   0.62939   1.000
    C303    C    0.96853   0.81211   0.62938   1.000
    C304    C    0.40759   0.79314   0.63454   1.000
    C305    C    0.90760   0.79314   0.63454   1.000
    C306    C    0.38203   0.70761   0.61782   1.000
    C307    C    0.88204   0.70761   0.61782   1.000
    C308    C    0.31674   0.69752   0.62269   1.000
    C309    C    0.81675   0.69752   0.62270   1.000
    C310    C    0.36091   0.87859   0.78216   1.000
    C311    C    0.86092   0.87859   0.78217   1.000
    C312    C    0.39509   0.81854   0.83140   1.000
    C313    C    0.89510   0.81854   0.83141   1.000
    C314    C    0.39488   0.82378   0.92370   1.000
    C315    C    0.89489   0.82377   0.92370   1.000
    C316    C    0.32917   0.93986   0.92283   1.000
    C317    C    0.82918   0.93986   0.92283   1.000
    C318    C    0.32651   0.93971   0.83031   1.000
    C319    C    0.82652   0.93971   0.83031   1.000
    S320    S    0.38969   0.33533   0.11841   1.000
    S321    S    0.88970   0.33533   0.11841   1.000
    S322    S    0.13964   0.66473   0.88140   1.000
    S323    S    0.63964   0.66474   0.88148   1.000
    S324    S    0.26468   0.38159   0.83525   1.000
    S325    S    0.76469   0.38159   0.83525   1.000
    S326    S    0.01464   0.61849   0.16460   1.000
    S327    S    0.51465   0.61850   0.16468   1.000
    S328    S    0.48537   0.16467   0.61840   1.000
    S329    S    0.98538   0.16468   0.61840   1.000
    S330    S    0.23532   0.83533   0.38156   1.000
    S331    S    0.73532   0.83533   0.38156   1.000
    S332    S    0.11032   0.11843   0.33529   1.000
    S333    S    0.61033   0.11843   0.33529   1.000
    S334    S    0.36036   0.88156   0.66472   1.000
    S335    S    0.86037   0.88156   0.66472   1.000
    N336    N    0.38678   0.02989   0.11625   1.000
    N337    N    0.88679   0.02989   0.11625   1.000
    N338    N    0.13674   0.97017   0.88370   1.000
    N339    N    0.63674   0.97018   0.88369   1.000
    N340    N    0.26175   0.38377   0.52986   1.000
    N341    N    0.76176   0.38376   0.52985   1.000
    N342    N    0.01175   0.61628   0.47008   1.000
    N343    N    0.51175   0.61628   0.47008   1.000
    N344    N    0.48826   0.47011   0.61624   1.000
    N345    N    0.98828   0.47013   0.61625   1.000
    N346    N    0.23825   0.52989   0.38375   1.000
    N347    N    0.73826   0.52989   0.38370   1.000
    N348    N    0.11323   0.11626   0.02989   1.000
    N349    N    0.61324   0.11626   0.02989   1.000
    N350    N    0.36326   0.88376   0.97012   1.000
    N351    N    0.86327   0.88376   0.97012   1.000
    O352    O    0.24249   0.38573   0.24577   1.000
    O353    O    0.74250   0.38574   0.24576   1.000
    O354    O    0.33987   0.40198   0.36273   1.000
    O355    O    0.83988   0.40198   0.36273   1.000
    O356    O    0.49246   0.61430   0.75419   1.000
    O357    O    0.99247   0.61432   0.75400   1.000
    O358    O    0.08986   0.59807   0.63719   1.000
    O359    O    0.58987   0.59808   0.63719   1.000
    O360    O    0.11747   0.25423   0.88570   1.000
    O361    O    0.61748   0.25424   0.88576   1.000
    O362    O    0.21486   0.13726   0.90193   1.000
    O363    O    0.71487   0.13726   0.90193   1.000
    O364    O    0.36747   0.74579   0.11428   1.000
    O365    O    0.86748   0.74579   0.11420   1.000
    O366    O    0.46488   0.86281   0.09803   1.000
    O367    O    0.96489   0.86280   0.09803   1.000
    O368    O    0.13253   0.11429   0.74576   1.000
    O369    O    0.63254   0.11431   0.74575   1.000
    O370    O    0.03513   0.09805   0.86276   1.000
    O371    O    0.53514   0.09803   0.86275   1.000
    O372    O    0.38253   0.88579   0.25421   1.000
    O373    O    0.88253   0.88580   0.25421   1.000
    O374    O    0.28514   0.90198   0.13725   1.000
    O375    O    0.78515   0.90198   0.13725   1.000
    O376    O    0.25752   0.24578   0.38571   1.000
    O377    O    0.75753   0.24578   0.38571   1.000
    O378    O    0.16013   0.36277   0.40196   1.000
    O379    O    0.66014   0.36277   0.40196   1.000
    O380    O    0.00753   0.75425   0.61424   1.000
    O381    O    0.50754   0.75425   0.61425   1.000
    O382    O    0.41014   0.63724   0.59803   1.000
    O383    O    0.91015   0.63724   0.59800   1.000
loop_
    _geom_bond_atom_site_label_1
    _geom_bond_atom_site_label_2
    _geom_bond_distance
    _geom_bond_site_symmetry_2
    _ccdc_geom_bond_type
    H19    C188      1.09125      .   S
    H18    C187      1.09045      .   S
    H17    C186      1.09032      .   S
    H16    C185      1.09031      .   S
    N348   C294      1.34931      .   S
    N348   C296      1.35097      .   S
    N349   C295      1.34931      .   S
    N349   C297      1.35091      .   S
    H144   C295      1.08780      .   S
    H143   C294      1.08781      .   S
    H146   C297      1.09029      .   S
    H145   C296      1.09038      .   S
    H2     C169      1.09791      .   S
    H3     C170      1.09792      .   S
    C185   C187      1.38752      .   S
    C185   N336      1.35102      .   S
    C186   C188      1.38753      .   S
    C186   N337      1.35101      .   S
    C188   C180      1.40906      .   S
    C187   C179      1.40905      .   S
    H5     C170      1.10001      .   S
    H4     C169      1.09993      .   S
    C294   C292      1.38505      .   S
    C295   C293      1.38504      .   S
    C297   C299      1.38762      .   S
    C296   C298      1.38747      .   S
    H68    C233      1.09741      .   S
    H69    C234      1.09732      .   S
    H1     C170      1.09563      .   S
    H0     C169      1.09562      .   S
    C170   C172      1.51521      .   S
    C169   C171      1.51522      .   S
    H70    C233      1.09364      .   S
    H71    C234      1.09362      .   S
    O367   C232      1.27203      .   S
    O366   C231      1.27203      .   S
    H63    C226      1.10644      .   S
    H62    C225      1.09793      .   S
    O365   C228      1.26902      .   S
    O364   C227      1.26879      .   S
    N336   C183      1.34925      .   S
    N337   C184      1.34927      .   S
    C232   C233      1.51193  1_655   S
    C232   C230      1.43181      .   S
    C231   C234      1.51230      .   S
    C231   C229      1.43183      .   S
    S321   C180      1.76016      .   S
    S321   C174      1.77231      .   S
    S320   C179      1.76016      .   S
    S320   C173      1.77230      .   S
    C180   C182      1.40474      .   S
    C179   C181      1.40475      .   S
    C234   H67       1.09994      .   S
    C233   H66       1.09982      .   S
    H61    C226      1.09567      .   S
    H60    C225      1.09560      .   S
    C228   C230      1.43315      .   S
    C228   C226      1.51526      .   S
    C227   C229      1.43314      .   S
    C227   C225      1.51526      .   S
    H114   C268      1.09365      .   S
    H115   C269      1.09364      .   S
    C230   S326      1.77177  1_655   S
    C229   S327      1.77228      .   S
    O375   C267      1.27206      .   S
    O374   C266      1.27206      .   S
    C226   H65       1.09992      .   S
    C225   H64       1.09992      .   S
    S326   C235      1.76128      .   S
    S327   C236      1.76008      .   S
    C292   H141      1.08948      .   S
    C292   C290      1.40472      .   S
    C293   H142      1.08946      .   S
    C293   C291      1.40434      .   S
    C299   H148      1.09041      .   S
    C299   C291      1.40874      .   S
    C298   H147      1.08983      .   S
    C298   C290      1.40915      .   S
    C183   C181      1.38503      .   S
    C183   H14       1.08783      .   S
    C184   C182      1.38503      .   S
    C184   H15       1.08784      .   S
    C181   H12       1.08950      .   S
    C182   H13       1.08951      .   S
    C171   C173      1.43316      .   S
    C171   O352      1.26884      .   S
    C172   C174      1.43316      .   S
    C172   O353      1.26875      .   S
    C268   H110      1.09987      .   S
    C268   C266      1.51232      .   S
    C268   H112      1.09735      .   S
    C269   H111      1.09987      .   S
    C269   C267      1.51232      .   S
    C269   H113      1.09735      .   S
    C173   C175      1.43189      .   S
    C174   C176      1.43188      .   S
    C266   C264      1.43185      .   S
    C267   C265      1.43129      .   S
    C291   S333      1.76085      .   S
    C290   S332      1.76010      .   S
    H8     C177      1.09735      .   S
    H9     C178      1.09727      .   S
    O373   C263      1.26803      .   S
    O372   C262      1.26875      .   S
    H116   C272      1.08949      .   S
    H117   C273      1.08910      .   S
    H119   C275      1.08812      .   S
    H118   C274      1.08718      .   S
    C235   C243      1.40913      .   S
    C235   C238      1.40449  1_455   S
    C236   C244      1.40914      .   S
    C236   C237      1.40471      .   S
    H133   C280      1.09993      .   S
    H134   C281      1.09995      .   S
    C176   C178      1.51231      .   S
    C176   O355      1.27195      .   S
    C175   C177      1.51230      .   S
    C175   O354      1.27195      .   S
    C265   C263      1.43304      .   S
    C265   S331      1.77271      .   S
    C264   C262      1.43311      .   S
    C264   S330      1.77226      .   S
    H79    C244      1.09043      .   S
    H78    C243      1.09043      .   S
    H7     C178      1.09986      .   S
    H6     C177      1.09987      .   S
    H73    C238      1.08951      .   S
    H72    C237      1.08943      .   S
    C177   H10       1.09366      .   S
    C178   H11       1.09324      .   S
    H136   C289      1.09979      .   S
    H135   C288      1.09993      .   S
    C263   C261      1.51632      .   S
    C262   C260      1.51536      .   S
    C273   C275      1.38505      .   S
    C273   C271      1.40502      .   S
    C272   C274      1.38496      .   S
    C272   C270      1.40472      .   S
    C274   N346      1.34994      .   S
    C275   N347      1.34876      .   S
    C244   C242      1.38746      .   S
    C243   C241      1.38746      .   S
    C238   C240      1.38508      .   S
    C237   C239      1.38508      .   S
    S333   C285      1.77228      .   S
    S332   C284      1.77228      .   S
    C280   C282      1.51529      .   S
    C280   H129      1.09564      .   S
    C280   H131      1.09792      .   S
    C281   C283      1.51527      .   S
    C281   H130      1.09561      .   S
    C281   H132      1.09792      .   S
    C285   C283      1.43313      .   S
    C285   C287      1.43180      .   S
    C284   C282      1.43314      .   S
    C284   C286      1.43181      .   S
    C283   O377      1.26881      .   S
    C282   O376      1.26878      .   S
    C289   C287      1.51230      .   S
    C289   H140      1.09368      .   S
    C289   H138      1.09738      .   S
    C288   C286      1.51232      .   S
    C288   H139      1.09359      .   S
    C288   H137      1.09730      .   S
    C271   S331      1.76016      .   S
    C271   C279      1.40916      .   S
    C270   S330      1.76015      .   S
    C270   C278      1.40906      .   S
    C287   O379      1.27206      .   S
    C286   O378      1.27206      .   S
    N347   C277      1.35148      .   S
    N346   C276      1.35102      .   S
    C260   H104      1.09563      .   S
    C260   H108      1.09990      .   S
    C260   H106      1.09787      .   S
    C261   H105      1.09564      .   S
    C261   H109      1.09995      .   S
    C261   H107      1.09788      .   S
    C242   H77       1.09033      .   S
    C242   N343      1.35099      .   S
    C241   H76       1.09033      .   S
    C241   N342      1.35100      .   S
    C240   H75       1.08779      .   S
    C240   N342      1.34910  1_655   S
    C239   H74       1.08778      .   S
    C239   N343      1.34931      .   S
    C278   C276      1.38753      .   S
    C278   H122      1.09043      .   S
    C279   C277      1.38751      .   S
    C279   H123      1.09043      .   S
    C277   H121      1.09034      .   S
    C276   H120      1.08947      .   S
    H102   C258      1.09040      .   S
    H103   C259      1.09028      .   S
    H100   C256      1.09029      .   S
    H101   C257      1.09038      .   S
    N341   C220      1.34929      .   S
    N341   C222      1.35102      .   S
    N340   C219      1.34877      .   S
    N340   C221      1.35094      .   S
    H55    C220      1.08778      .   S
    H54    C219      1.08729      .   S
    H57    C222      1.09036      .   S
    H56    C221      1.09030      .   S
    H82    C245      1.09788      .   S
    H83    C246      1.09791      .   S
    C256   C258      1.38752      .   S
    C256   N344      1.35095      .   S
    C257   C259      1.38752      .   S
    C257   N345      1.35099      .   S
    C259   C127      1.40922      .   S
    C258   C126      1.40886      .   S
    H85    C246      1.09992      .   S
    H84    C245      1.09990      .   S
    C219   C217      1.38597      .   S
    C220   C218      1.38507      .   S
    C221   C223      1.38752      .   S
    C222   C224      1.38752      .   S
    H157   C308      1.09738      .   S
    H158   C309      1.09720      .   S
    H81    C246      1.09562      .   S
    H80    C245      1.09562      .   S
    C246   C248      1.51533      .   S
    C245   C247      1.51529      .   S
    H159   C308      1.09365      .   S
    H160   C309      1.09356      .   S
    O383   C307      1.27214      .   S
    O382   C306      1.27204      .   S
    H152   C301      1.09790      .   S
    H151   C300      1.09788      .   S
    O380   C303      1.26851  1_455   S
    O381   C302      1.26879      .   S
    N344   C255      1.34934      .   S
    N345   C254      1.34909  1_655   S
    C306   C308      1.51230      .   S
    C306   C304      1.43182      .   S
    C307   C309      1.51229      .   S
    C307   C305      1.43182      .   S
    S328   C126      1.76019      .   S
    S328   C250      1.77314      .   S
    S329   C127      1.76019      .   S
    S329   C249      1.77301  1_655   S
    C126   C253      1.40495      .   S
    C127   C128      1.40454  1_655   S
    C308   H155      1.09994      .   S
    C309   H156      1.10003      .   S
    H150   C300      1.09585      .   S
    H149   C301      1.09523  1_455   S
    C303   C305      1.43315      .   S
    C303   C301      1.51527      .   S
    C302   C304      1.43314      .   S
    C302   C300      1.51528      .   S
    H31    C198      1.09355      .   S
    H30    C197      1.09362      .   S
    C305   S335      1.77226      .   S
    C304   S334      1.77226      .   S
    O359   C196      1.27195      .   S
    O358   C195      1.27206      .   S
    C301   H154      1.10002      .   S
    C300   H153      1.10002      .   S
    S334   C310      1.76010      .   S
    S335   C311      1.76025      .   S
    C217   H52       1.08949      .   S
    C217   C215      1.40474      .   S
    C218   H53       1.08889      .   S
    C218   C216      1.40466      .   S
    C223   H58       1.09041      .   S
    C223   C215      1.40912      .   S
    C224   H59       1.09041      .   S
    C224   C216      1.40905      .   S
    C255   C253      1.38504      .   S
    C255   H99       1.08779      .   S
    C254   C128      1.38504      .   S
    C254   H98       1.08779      .   S
    C253   H97       1.08949      .   S
    C128   H96       1.08951      .   S
    C247   C249      1.43317      .   S
    C247   O368      1.26881      .   S
    C248   C250      1.43316      .   S
    C248   O369      1.26872      .   S
    C198   H27       1.09986      .   S
    C198   C196      1.51228      .   S
    C198   H29       1.09737      .   S
    C197   H26       1.09989      .   S
    C197   C195      1.51229      .   S
    C197   H28       1.09741      .   S
    C250   C252      1.43177      .   S
    C249   C251      1.43181      .   S
    C196   C194      1.43190      .   S
    C195   C193      1.43175      .   S
    C216   S325      1.76025      .   S
    C215   S324      1.76010      .   S
    H88    C124      1.09742      .   S
    H89    C125      1.09739      .   S
    O357   C191      1.27053  1_655   S
    O356   C192      1.26886      .   S
    H33    C94       1.08946      .   S
    H32    C93       1.08944      .   S
    H35    C200      1.09243      .   S
    H34    C95       1.08785      .   S
    C310   C318      1.40914      .   S
    C310   C312      1.40472      .   S
    C311   C319      1.40907      .   S
    C311   C313      1.40473      .   S
    H44    C205      1.09995      .   S
    H45    C206      1.09995      .   S
    C252   C124      1.51230      .   S
    C252   O371      1.27199      .   S
    C251   C125      1.51192  1_455   S
    C251   O370      1.27198      .   S
    C193   C191      1.43315      .   S
    C193   S322      1.77134      .   S
    C194   C192      1.43312      .   S
    C194   S323      1.77224      .   S
    H168   C319      1.09099      .   S
    H167   C318      1.09044      .   S
    H87    C125      1.09989      .   S
    H86    C124      1.09988      .   S
    H161   C312      1.08946      .   S
    H162   C313      1.08952      .   S
    C124   H90       1.09360      .   S
    C125   H91       1.09355      .   S
    H47    C214      1.09989      .   S
    H46    C213      1.10054      .   S
    C192   C190      1.51527      .   S
    C191   C189      1.51524      .   S
    C94    C200      1.38502      .   S
    C94    C92       1.40467      .   S
    C93    C95       1.38503      .   S
    C93    C199      1.40469      .   S
    C200   N339      1.34928      .   S
    C95    N338      1.34931      .   S
    C318   C316      1.38751      .   S
    C319   C317      1.38751      .   S
    C312   C314      1.38505      .   S
    C313   C315      1.38490      .   S
    S324   C209      1.77231      .   S
    S325   C210      1.77229      .   S
    C205   C207      1.51527      .   S
    C205   H40       1.09559      .   S
    C205   H42       1.09788      .   S
    C206   C208      1.51529      .   S
    C206   H41       1.09560      .   S
    C206   H43       1.09789      .   S
    C210   C208      1.43313      .   S
    C210   C212      1.43180      .   S
    C209   C207      1.43313      .   S
    C209   C211      1.43181      .   S
    C207   O360      1.26868      .   S
    C208   O361      1.26881      .   S
    C214   C212      1.51232      .   S
    C214   H51       1.09365      .   S
    C214   H49       1.09737      .   S
    C213   C211      1.51231      .   S
    C213   H50       1.09365      .   S
    C213   H48       1.09733      .   S
    C92    S323      1.76015      .   S
    C92    C204      1.40912      .   S
    C199   S322      1.76013      .   S
    C199   C203      1.40914      .   S
    C212   O363      1.27203      .   S
    C211   O362      1.27201      .   S
    N339   C202      1.35098      .   S
    N338   C201      1.35097      .   S
    C190   H20       1.09561      .   S
    C190   H25       1.09990      .   S
    C190   H23       1.09790      .   S
    C189   H21       1.09526  1_455   S
    C189   H24       1.09992      .   S
    C189   H22       1.09793      .   S
    C317   H166      1.08977      .   S
    C317   N351      1.35099      .   S
    C316   H165      1.09033      .   S
    C316   N350      1.35099      .   S
    C314   H163      1.08782      .   S
    C314   N350      1.34933      .   S
    C315   H164      1.08781      .   S
    C315   N351      1.34934      .   S
    C204   C202      1.38751      .   S
    C204   H39       1.09043      .   S
    C203   C201      1.38752      .   S
    C203   H38       1.09038      .   S
    C202   H37       1.09037      .   S
    C201   H36       1.09029      .   S
