# CIF file generated by openbabel 2.4.90, see http://openbabel.sf.net
data_I
_chemical_name_common ''
_cell_length_a 23.02
_cell_length_b 14.98
_cell_length_c 14.982
_cell_angle_alpha 90.008
_cell_angle_beta 89.98
_cell_angle_gamma 90.016
_space_group_name_H-M_alt 'P 1'
_space_group_name_Hall 'P 1'
loop_
    _symmetry_equiv_pos_as_xyz
    x,y,z
loop_
    _atom_site_label
    _atom_site_type_symbol
    _atom_site_fract_x
    _atom_site_fract_y
    _atom_site_fract_z
    _atom_site_occupancy
    Zn0     Zn   0.87502   0.88716   0.11286   1.000
    Zn1     Zn   0.12499   0.11287   0.88712   1.000
    Zn2     Zn   0.62500   0.11288   0.88712   1.000
    Zn3     Zn   0.25000   0.38715   0.38712   1.000
    Zn4     Zn   0.75001   0.38715   0.38712   1.000
    Zn5     Zn   1.00000   0.61289   0.61284   1.000
    Zn6     Zn   0.50001   0.61288   0.61284   1.000
    Zn7     Zn   0.37501   0.88716   0.11286   1.000
