# CIF file generated by openbabel 2.4.90, see http://openbabel.sf.net
data_I
_chemical_name_common ''
_cell_length_a 23.02
_cell_length_b 14.98
_cell_length_c 14.982
_cell_angle_alpha 90.008
_cell_angle_beta 89.98
_cell_angle_gamma 90.016
_space_group_name_H-M_alt 'P 1'
_space_group_name_Hall 'P 1'
loop_
    _symmetry_equiv_pos_as_xyz
    x,y,z
loop_
    _atom_site_label
    _atom_site_type_symbol
    _atom_site_fract_x
    _atom_site_fract_y
    _atom_site_fract_z
    _atom_site_occupancy
    Zr0     Zr   0.37501   0.88716   0.11286   1.000
    Zr1     Zr   0.87502   0.88716   0.11286   1.000
    Zr2     Zr   0.12499   0.11287   0.88712   1.000
    Zr3     Zr   0.62500   0.11288   0.88712   1.000
    Zr4     Zr   0.25000   0.38715   0.38712   1.000
    Zr5     Zr   0.75001   0.38715   0.38712   1.000
    Zr6     Zr   1.00000   0.61289   0.61284   1.000
    Zr7     Zr   0.50001   0.61288   0.61284   1.000
    N8      N    0.03259   0.13456   0.70689   1.000
    O9      O    0.12282   0.12567   0.71943   1.000
    O10     O    0.02000   0.11216   0.84361   1.000
    O11     O    0.99022   0.45006   0.61698   1.000
    N12     N    0.96743   0.70691   0.13455   1.000
    O13     O    0.98001   0.84365   0.11214   1.000
    O14     O    0.87720   0.71946   0.12555   1.000
    O15     O    0.00979   0.61702   0.45002   1.000
    N16     N    0.90760   0.79314   0.63454   1.000
    O17     O    0.89501   0.65640   0.61212   1.000
    O18     O    0.99782   0.78059   0.62563   1.000
    O19     O    0.86523   0.88303   0.95005   1.000
    N20     N    0.34245   0.36548   0.20684   1.000
    O21     O    0.25222   0.37435   0.21943   1.000
    O22     O    0.35501   0.38788   0.34357   1.000
    O23     O    0.38482   0.04997   0.11698   1.000
    N24     N    0.09241   0.63456   0.79308   1.000
    O25     O    0.00218   0.62569   0.78047   1.000
    O26     O    0.10500   0.61216   0.65635   1.000
    O27     O    0.13478   0.95009   0.88297   1.000
    N28     N    0.21743   0.29316   0.86543   1.000
    O29     O    0.23000   0.15643   0.88784   1.000
    O30     O    0.12720   0.28057   0.87431   1.000
    O31     O    0.25980   0.38303   0.54992   1.000
    N32     N    0.71744   0.29316   0.86543   1.000
    O33     O    0.73001   0.15643   0.88782   1.000
    O34     O    0.62721   0.28058   0.87434   1.000
    O35     O    0.75981   0.38303   0.54991   1.000
    N36     N    0.78257   0.86549   0.29310   1.000
    O37     O    0.87281   0.87439   0.28054   1.000
    O38     O    0.77001   0.88787   0.15641   1.000
    O39     O    0.74021   0.54996   0.38299   1.000
    N40     N    0.15756   0.20687   0.36544   1.000
    O41     O    0.14500   0.34360   0.38785   1.000
    O42     O    0.24779   0.21944   0.37432   1.000
    O43     O    0.11519   0.11699   0.04994   1.000
    N44     N    0.28257   0.86549   0.29314   1.000
    O45     O    0.37280   0.87439   0.28054   1.000
    O46     O    0.27001   0.88787   0.15641   1.000
    O47     O    0.24020   0.54996   0.38301   1.000
    N48     N    0.84246   0.36548   0.20684   1.000
    O49     O    0.85502   0.38788   0.34356   1.000
    O50     O    0.75222   0.37436   0.21942   1.000
    O51     O    0.88483   0.04997   0.11697   1.000
    N52     N    0.59242   0.63457   0.79308   1.000
    O53     O    0.50218   0.62568   0.78053   1.000
    O54     O    0.60500   0.61218   0.65634   1.000
    O55     O    0.63479   0.95010   0.88294   1.000
    N56     N    0.65757   0.20686   0.36544   1.000
    O57     O    0.74780   0.21944   0.37432   1.000
    O58     O    0.64501   0.34360   0.38784   1.000
    O59     O    0.61520   0.11699   0.04994   1.000
    N60     N    0.46742   0.70691   0.13456   1.000
    O61     O    0.48001   0.84365   0.11214   1.000
    O62     O    0.37719   0.71946   0.12566   1.000
    O63     O    0.50980   0.61702   0.45002   1.000
    N64     N    0.53259   0.13455   0.70688   1.000
    O65     O    0.62282   0.12567   0.71942   1.000
    O66     O    0.52000   0.11213   0.84360   1.000
    O67     O    0.49022   0.45005   0.61697   1.000
    N68     N    0.40759   0.79314   0.63454   1.000
    O69     O    0.49782   0.78059   0.62563   1.000
    O70     O    0.39501   0.65640   0.61213   1.000
    O71     O    0.36522   0.88303   0.95005   1.000
loop_
    _geom_bond_atom_site_label_1
    _geom_bond_atom_site_label_2
    _geom_bond_distance
    _geom_bond_site_symmetry_2
    _ccdc_geom_bond_type
    N8     O9        2.08991      .   S
    Zr2    O9        2.52021      .   S
    N8     O10       2.09575      .   S
    Zr2    O10       2.50349      .   S
    N8     O11       5.01069  1_455   S
    Zr6    O11       2.45026      .   S
    N12    O13       2.09576      .   S
    Zr1    O13       2.50350      .   S
    N12    O14       2.09004      .   S
    Zr1    O14       2.52001      .   S
    N12    O15       5.01077  1_655   S
    Zr6    O15       2.45054  1_655   S
    N16    O17       2.09580      .   S
    Zr6    O17       2.50337      .   S
    N16    O18       2.08970      .   S
    Zr6    O18       2.52004      .   S
    N16    O19       5.01039      .   S
    Zr1    O19       2.45048  1_554   S
    N20    O21       2.08990      .   S
    Zr4    O21       2.52011      .   S
    N20    O22       2.09580      .   S
    Zr4    O22       2.50352      .   S
    N20    O23       5.01027      .   S
    Zr0    O23       2.44989  1_565   S
    N24    O25       2.08986      .   S
    Zr6    O25       2.51919  1_655   S
    N24    O26       2.09577      .   S
    Zr6    O26       2.50364  1_655   S
    N24    O27       5.01020      .   S
    Zr2    O27       2.44977  1_545   S
    N28    O29       2.09570      .   S
    Zr2    O29       2.50354      .   S
    N28    O30       2.08988      .   S
    Zr2    O30       2.51994      .   S
    N28    O31       5.01060      .   S
    Zr4    O31       2.45031      .   S
    N32    O33       2.09569      .   S
    Zr3    O33       2.50353      .   S
    N32    O34       2.08987      .   S
    Zr3    O34       2.51992      .   S
    N32    O35       5.01066      .   S
    Zr5    O35       2.45023      .   S
    N36    O37       2.08987      .   S
    Zr1    O37       2.51997      .   S
    N36    O38       2.09525      .   S
    Zr1    O38       2.50353      .   S
    N36    O39       5.01044      .   S
    Zr5    O39       2.45022      .   S
    N40    O41       2.09574      .   S
    Zr4    O41       2.50348      .   S
    N40    O42       2.08986      .   S
    Zr4    O42       2.52002      .   S
    N40    O43       5.01069      .   S
    Zr2    O43       2.45053  1_556   S
    N44    O45       2.08989      .   S
    Zr0    O45       2.52005      .   S
    N44    O46       2.09585      .   S
    Zr0    O46       2.50352      .   S
    N44    O47       5.01033      .   S
    Zr4    O47       2.45020      .   S
    N48    O49       2.09576      .   S
    Zr5    O49       2.50353      .   S
    N48    O50       2.08990      .   S
    Zr5    O50       2.52019      .   S
    N48    O51       5.01031      .   S
    Zr1    O51       2.44988  1_565   S
    N52    O53       2.08991      .   S
    Zr7    O53       2.52009      .   S
    N52    O54       2.09583      .   S
    Zr7    O54       2.50360      .   S
    N52    O55       5.01014      .   S
    Zr3    O55       2.44971  1_545   S
    N56    O57       2.08986      .   S
    Zr5    O57       2.52004      .   S
    N56    O58       2.09573      .   S
    Zr5    O58       2.50348      .   S
    N56    O59       5.01066      .   S
    Zr3    O59       2.45054  1_556   S
    N60    O61       2.09579      .   S
    Zr0    O61       2.50362      .   S
    N60    O62       2.08993      .   S
    Zr0    O62       2.52012      .   S
    N60    O63       5.01076      .   S
    Zr7    O63       2.45048      .   S
    N64    O65       2.08993      .   S
    Zr3    O65       2.52032      .   S
    N64    O66       2.09579      .   S
    Zr3    O66       2.50365      .   S
    N64    O67       5.01074      .   S
    Zr7    O67       2.45036      .   S
    N68    O69       2.08996      .   S
    Zr7    O69       2.52007      .   S
    N68    O70       2.09578      .   S
    Zr7    O70       2.50366      .   S
    N68    O71       5.01048      .   S
    Zr0    O71       2.45039  1_554   S
