# CIF file generated by openbabel 2.4.90, see http://openbabel.sf.net
data_I
_chemical_name_common ''
_cell_length_a 23.02
_cell_length_b 14.98
_cell_length_c 14.982
_cell_angle_alpha 90.008
_cell_angle_beta 89.98
_cell_angle_gamma 90.016
_space_group_name_H-M_alt 'P 1'
_space_group_name_Hall 'P 1'
loop_
    _symmetry_equiv_pos_as_xyz
    x,y,z
loop_
    _atom_site_label
    _atom_site_type_symbol
    _atom_site_fract_x
    _atom_site_fract_y
    _atom_site_fract_z
    _atom_site_occupancy
    C0      C    0.37501   0.88716   0.11286   1.000
    C1      C    0.87502   0.88716   0.11286   1.000
    C2      C    0.12499   0.11287   0.88712   1.000
    C3      C    0.62500   0.11288   0.88712   1.000
    C4      C    0.25000   0.38715   0.38712   1.000
    C5      C    0.75001   0.38715   0.38712   1.000
    C6      C    1.00000   0.61289   0.61284   1.000
    C7      C    0.50001   0.61288   0.61284   1.000
    C8      C    0.21393   0.37331   0.09066   1.000
    C9      C    0.71394   0.37332   0.09065   1.000
    C10     C    0.28418   0.39899   0.04525   1.000
    C11     C    0.78419   0.39900   0.04525   1.000
    C12     C    0.26667   0.28766   0.07182   1.000
    C13     C    0.76669   0.28767   0.07180   1.000
    C14     C    0.44784   0.30757   0.29756   1.000
    C15     C    0.94785   0.30756   0.29756   1.000
    C16     C    0.45625   0.41457   0.25014   1.000
    C17     C    0.95626   0.41456   0.25015   1.000
    C18     C    0.44523   0.40353   0.36803   1.000
    C19     C    0.94524   0.40351   0.36800   1.000
    C20     C    0.32840   0.20192   0.23160   1.000
    C21     C    0.82840   0.20192   0.23160   1.000
    C22     C    0.32869   0.03661   0.22147   1.000
    C23     C    0.82870   0.03661   0.22147   1.000
    C24     C    0.44688   0.03848   0.01320   1.000
    C25     C    0.94689   0.03848   0.01320   1.000
    C26     C    0.45210   0.20349   0.01298   1.000
    C27     C    0.95211   0.20349   0.01290   1.000
    C28     C    0.46386   0.62672   0.90930   1.000
    C29     C    0.96387   0.62672   0.90932   1.000
    C30     C    0.03408   0.60104   0.95470   1.000
    C31     C    0.53409   0.60104   0.95470   1.000
    C32     C    0.01663   0.71237   0.92814   1.000
    C33     C    0.51663   0.71237   0.92813   1.000
    C34     C    0.19785   0.69247   0.70231   1.000
    C35     C    0.69784   0.69252   0.70230   1.000
    C36     C    0.20620   0.58548   0.74974   1.000
    C37     C    0.70622   0.58551   0.74972   1.000
    C38     C    0.19522   0.59651   0.63185   1.000
    C39     C    0.69523   0.59656   0.63184   1.000
    C40     C    0.07838   0.79811   0.76835   1.000
    C41     C    0.57838   0.79812   0.76834   1.000
    C42     C    0.07867   0.96342   0.77851   1.000
    C43     C    0.57868   0.96343   0.77800   1.000
    C44     C    0.19681   0.96160   0.98672   1.000
    C45     C    0.69682   0.96162   0.98671   1.000
    C46     C    0.20202   0.79659   0.98690   1.000
    C47     C    0.70203   0.79660   0.98690   1.000
    C48     C    0.08890   0.40934   0.87327   1.000
    C49     C    0.58891   0.40935   0.87329   1.000
    C50     C    0.15913   0.45479   0.89892   1.000
    C51     C    0.65915   0.45479   0.89893   1.000
    C52     C    0.14167   0.42815   0.78762   1.000
    C53     C    0.64168   0.42816   0.78763   1.000
    C54     C    0.32287   0.20242   0.80750   1.000
    C55     C    0.82286   0.20242   0.80749   1.000
    C56     C    0.33122   0.24989   0.91453   1.000
    C57     C    0.83123   0.24987   0.91449   1.000
    C58     C    0.32022   0.13198   0.90350   1.000
    C59     C    0.82022   0.13196   0.90343   1.000
    C60     C    0.20337   0.26840   0.70189   1.000
    C61     C    0.70338   0.26840   0.70180   1.000
    C62     C    0.20365   0.27855   0.53660   1.000
    C63     C    0.70366   0.27855   0.53660   1.000
    C64     C    0.32187   0.48681   0.53842   1.000
    C65     C    0.82187   0.48681   0.53841   1.000
    C66     C    0.32709   0.48702   0.70340   1.000
    C67     C    0.82710   0.48701   0.70340   1.000
    C68     C    0.33887   0.59066   0.12672   1.000
    C69     C    0.83888   0.59065   0.12670   1.000
    C70     C    0.40911   0.54527   0.10099   1.000
    C71     C    0.90912   0.54527   0.10000   1.000
    C72     C    0.39163   0.57184   0.21232   1.000
    C73     C    0.89164   0.57183   0.21232   1.000
    C74     C    0.07282   0.79769   0.19245   1.000
    C75     C    0.57283   0.79770   0.19246   1.000
    C76     C    0.08123   0.75026   0.08545   1.000
    C77     C    0.58123   0.75027   0.08546   1.000
    C78     C    0.07024   0.86816   0.09652   1.000
    C79     C    0.57024   0.86817   0.09653   1.000
    C80     C    0.45337   0.73164   0.29814   1.000
    C81     C    0.95338   0.73164   0.29813   1.000
    C82     C    0.45368   0.72149   0.46342   1.000
    C83     C    0.95369   0.72149   0.46342   1.000
    C84     C    0.07184   0.51327   0.46142   1.000
    C85     C    0.57185   0.51326   0.46142   1.000
    C86     C    0.07704   0.51308   0.29643   1.000
    C87     C    0.57705   0.51308   0.29643   1.000
    C88     C    0.16114   0.12674   0.59064   1.000
    C89     C    0.66114   0.12670   0.59063   1.000
    C90     C    0.09091   0.10101   0.54526   1.000
    C91     C    0.59091   0.10098   0.54526   1.000
    C92     C    0.10837   0.21235   0.57184   1.000
    C93     C    0.60839   0.21233   0.57180   1.000
    C94     C    0.42717   0.19242   0.79767   1.000
    C95     C    0.92720   0.19250   0.79766   1.000
    C96     C    0.41879   0.08542   0.75021   1.000
    C97     C    0.91879   0.08548   0.75025   1.000
    C98     C    0.42977   0.09646   0.86810   1.000
    C99     C    0.92978   0.09656   0.86813   1.000
    C100    C    0.04663   0.29816   0.73161   1.000
    C101    C    0.54664   0.29815   0.73160   1.000
    C102    C    0.04632   0.46347   0.72144   1.000
    C103    C    0.54633   0.46345   0.72143   1.000
    C104    C    0.42818   0.46146   0.51324   1.000
    C105    C    0.92819   0.46147   0.51324   1.000
    C106    C    0.42298   0.29644   0.51306   1.000
    C107    C    0.92299   0.29645   0.51306   1.000
    C108    C    0.41109   0.87334   0.40931   1.000
    C109    C    0.91110   0.87335   0.40931   1.000
    C110    C    0.34085   0.89900   0.45474   1.000
    C111    C    0.84086   0.89901   0.45474   1.000
    C112    C    0.35832   0.78768   0.42811   1.000
    C113    C    0.85833   0.78769   0.42812   1.000
    C114    C    0.17716   0.80753   0.20242   1.000
    C115    C    0.67717   0.80753   0.20242   1.000
    C116    C    0.16877   0.91455   0.24984   1.000
    C117    C    0.66878   0.91454   0.24984   1.000
    C118    C    0.17979   0.90347   0.13195   1.000
    C119    C    0.67979   0.90346   0.13195   1.000
    C120    C    0.29662   0.70194   0.26839   1.000
    C121    C    0.79663   0.70194   0.26839   1.000
    C122    C    0.29635   0.53663   0.27854   1.000
    C123    C    0.79635   0.53663   0.27850   1.000
    C124    C    0.17814   0.53846   0.48670   1.000
    C125    C    0.67814   0.53846   0.48678   1.000
    C126    C    0.17291   0.70347   0.48699   1.000
    C127    C    0.67291   0.70347   0.48699   1.000
    C128    C    0.28609   0.09066   0.37326   1.000
    C129    C    0.78609   0.09066   0.37327   1.000
    C130    C    0.21584   0.04524   0.39895   1.000
    C131    C    0.71585   0.04524   0.39896   1.000
    C132    C    0.23333   0.07182   0.28763   1.000
    C133    C    0.73335   0.07181   0.28764   1.000
    C134    C    0.05217   0.29760   0.30754   1.000
    C135    C    0.55218   0.29760   0.30753   1.000
    C136    C    0.04376   0.25018   0.41453   1.000
    C137    C    0.54377   0.25018   0.41452   1.000
    C138    C    0.05477   0.36808   0.40348   1.000
    C139    C    0.55478   0.36808   0.40347   1.000
    C140    C    0.17162   0.23163   0.20189   1.000
    C141    C    0.67163   0.23163   0.20189   1.000
    C142    C    0.17132   0.22150   0.03660   1.000
    C143    C    0.67133   0.22150   0.03660   1.000
    C144    C    0.05313   0.01320   0.03849   1.000
    C145    C    0.55314   0.01321   0.03849   1.000
    C146    C    0.04792   0.01299   0.20340   1.000
    C147    C    0.54793   0.01299   0.20348   1.000
    C148    C    0.03613   0.90939   0.62668   1.000
    C149    C    0.53614   0.90939   0.62660   1.000
    C150    C    0.46591   0.95478   0.60102   1.000
    C151    C    0.96592   0.95479   0.60102   1.000
    C152    C    0.48337   0.92821   0.71233   1.000
    C153    C    0.98338   0.92821   0.71233   1.000
    C154    C    0.30215   0.70236   0.69244   1.000
    C155    C    0.80217   0.70237   0.69246   1.000
    C156    C    0.29380   0.74981   0.58545   1.000
    C157    C    0.79380   0.74979   0.58548   1.000
    C158    C    0.30478   0.63190   0.59648   1.000
    C159    C    0.80478   0.63189   0.59652   1.000
    C160    C    0.42163   0.76840   0.79807   1.000
    C161    C    0.92164   0.76840   0.79807   1.000
    C162    C    0.42134   0.77855   0.96336   1.000
    C163    C    0.92134   0.77855   0.96336   1.000
    C164    C    0.30318   0.98678   0.96157   1.000
    C165    C    0.80319   0.98678   0.96150   1.000
    C166    C    0.29796   0.98698   0.79658   1.000
    C167    C    0.79797   0.98698   0.79650   1.000
    C168    C    0.26033   0.35726   0.09309   1.000
    C169    C    0.76034   0.35727   0.09309   1.000
    C170    C    0.28152   0.37061   0.18790   1.000
    C171    C    0.78153   0.37061   0.18790   1.000
    C172    C    0.34245   0.36548   0.20684   1.000
    C173    C    0.84246   0.36548   0.20684   1.000
    C174    C    0.36799   0.38219   0.29236   1.000
    C175    C    0.86800   0.38219   0.29236   1.000
    C176    C    0.43328   0.37732   0.30242   1.000
    C177    C    0.93328   0.37731   0.30242   1.000
    C178    C    0.38913   0.21787   0.12138   1.000
    C179    C    0.88914   0.21787   0.12138   1.000
    C180    C    0.35495   0.16860   0.18145   1.000
    C181    C    0.85496   0.16860   0.18145   1.000
    C182    C    0.35515   0.07629   0.17623   1.000
    C183    C    0.85516   0.07629   0.17623   1.000
    C184    C    0.42088   0.07721   0.06012   1.000
    C185    C    0.92089   0.07721   0.06012   1.000
    C186    C    0.42354   0.16974   0.06026   1.000
    C187    C    0.92355   0.16974   0.06026   1.000
    C188    C    0.01026   0.64277   0.90687   1.000
    C189    C    0.51027   0.64277   0.90687   1.000
    C190    C    0.03148   0.62943   0.81205   1.000
    C191    C    0.53148   0.62942   0.81205   1.000
    C192    C    0.09241   0.63456   0.79308   1.000
    C193    C    0.59242   0.63457   0.79308   1.000
    C194    C    0.11797   0.61785   0.70756   1.000
    C195    C    0.61798   0.61786   0.70755   1.000
    C196    C    0.18326   0.62272   0.69746   1.000
    C197    C    0.68326   0.62276   0.69745   1.000
    C198    C    0.13908   0.78219   0.87853   1.000
    C199    C    0.63909   0.78220   0.87852   1.000
    C200    C    0.10492   0.83144   0.81849   1.000
    C201    C    0.60492   0.83145   0.81848   1.000
    C202    C    0.10512   0.92375   0.82373   1.000
    C203    C    0.60513   0.92376   0.82371   1.000
    C204    C    0.17082   0.92286   0.93981   1.000
    C205    C    0.67083   0.92288   0.93979   1.000
    C206    C    0.17348   0.83033   0.93965   1.000
    C207    C    0.67349   0.83034   0.93964   1.000
    C208    C    0.13531   0.40692   0.85722   1.000
    C209    C    0.63532   0.40692   0.85723   1.000
    C210    C    0.15651   0.31210   0.87058   1.000
    C211    C    0.65651   0.31211   0.87059   1.000
    C212    C    0.21743   0.29316   0.86543   1.000
    C213    C    0.71744   0.29316   0.86543   1.000
    C214    C    0.24298   0.20764   0.88215   1.000
    C215    C    0.74299   0.20764   0.88213   1.000
    C216    C    0.30827   0.19758   0.87729   1.000
    C217    C    0.80828   0.19757   0.87724   1.000
    C218    C    0.26411   0.37861   0.71781   1.000
    C219    C    0.76412   0.37861   0.71780   1.000
    C220    C    0.22992   0.31855   0.66856   1.000
    C221    C    0.72993   0.31855   0.66856   1.000
    C222    C    0.23012   0.32378   0.57620   1.000
    C223    C    0.73013   0.32378   0.57626   1.000
    C224    C    0.29586   0.43989   0.57715   1.000
    C225    C    0.79587   0.43989   0.57715   1.000
    C226    C    0.29853   0.43974   0.66967   1.000
    C227    C    0.79854   0.43974   0.66967   1.000
    C228    C    0.38528   0.59311   0.14274   1.000
    C229    C    0.88529   0.59310   0.14274   1.000
    C230    C    0.40649   0.68794   0.12941   1.000
    C231    C    0.90650   0.68794   0.12941   1.000
    C232    C    0.46742   0.70691   0.13456   1.000
    C233    C    0.96743   0.70691   0.13455   1.000
    C234    C    0.49298   0.79244   0.11783   1.000
    C235    C    0.99299   0.79244   0.11783   1.000
    C236    C    0.05826   0.80254   0.12271   1.000
    C237    C    0.55827   0.80254   0.12271   1.000
    C238    C    0.01409   0.62145   0.28212   1.000
    C239    C    0.51409   0.62146   0.28212   1.000
    C240    C    0.47992   0.68150   0.33142   1.000
    C241    C    0.97993   0.68150   0.33142   1.000
    C242    C    0.48013   0.67627   0.42372   1.000
    C243    C    0.98014   0.67627   0.42372   1.000
    C244    C    0.04584   0.56018   0.42273   1.000
    C245    C    0.54584   0.56018   0.42273   1.000
    C246    C    0.04849   0.56034   0.33021   1.000
    C247    C    0.54850   0.56034   0.33021   1.000
    C248    C    0.11473   0.14276   0.59309   1.000
    C249    C    0.61474   0.14274   0.59308   1.000
    C250    C    0.09352   0.12941   0.68791   1.000
    C251    C    0.59352   0.12943   0.68791   1.000
    C252    C    0.03259   0.13456   0.70689   1.000
    C253    C    0.53259   0.13455   0.70688   1.000
    C254    C    0.00703   0.11784   0.79241   1.000
    C255    C    0.50703   0.11783   0.79240   1.000
    C256    C    0.44174   0.12267   0.80250   1.000
    C257    C    0.94175   0.12274   0.80252   1.000
    C258    C    0.48592   0.28213   0.62140   1.000
    C259    C    0.98593   0.28214   0.62143   1.000
    C260    C    0.02008   0.33145   0.68147   1.000
    C261    C    0.52009   0.33144   0.68146   1.000
    C262    C    0.01988   0.42376   0.67623   1.000
    C263    C    0.51989   0.42375   0.67622   1.000
    C264    C    0.45418   0.42276   0.56015   1.000
    C265    C    0.95419   0.42277   0.56016   1.000
    C266    C    0.45152   0.33022   0.56031   1.000
    C267    C    0.95153   0.33023   0.56030   1.000
    C268    C    0.36468   0.85729   0.40688   1.000
    C269    C    0.86469   0.85730   0.40688   1.000
    C270    C    0.34349   0.87065   0.31207   1.000
    C271    C    0.84350   0.87065   0.31200   1.000
    C272    C    0.28257   0.86549   0.29314   1.000
    C273    C    0.78257   0.86549   0.29310   1.000
    C274    C    0.25702   0.88219   0.20763   1.000
    C275    C    0.75703   0.88219   0.20763   1.000
    C276    C    0.19174   0.87729   0.19756   1.000
    C277    C    0.69174   0.87729   0.19756   1.000
    C278    C    0.23588   0.71787   0.37860   1.000
    C279    C    0.73589   0.71787   0.37859   1.000
    C280    C    0.27007   0.66861   0.31854   1.000
    C281    C    0.77008   0.66861   0.31850   1.000
    C282    C    0.26988   0.57630   0.32370   1.000
    C283    C    0.76988   0.57630   0.32376   1.000
    C284    C    0.20414   0.57719   0.43987   1.000
    C285    C    0.70415   0.57719   0.43986   1.000
    C286    C    0.20147   0.66973   0.43972   1.000
    C287    C    0.70147   0.66973   0.43972   1.000
    C288    C    0.23968   0.09309   0.35722   1.000
    C289    C    0.73969   0.09309   0.35723   1.000
    C290    C    0.21849   0.18791   0.37058   1.000
    C291    C    0.71850   0.18791   0.37057   1.000
    C292    C    0.15756   0.20687   0.36544   1.000
    C293    C    0.65757   0.20686   0.36544   1.000
    C294    C    0.13202   0.29239   0.38216   1.000
    C295    C    0.63203   0.29239   0.38215   1.000
    C296    C    0.06673   0.30246   0.37729   1.000
    C297    C    0.56674   0.30246   0.37727   1.000
    C298    C    0.11088   0.12140   0.21785   1.000
    C299    C    0.61089   0.12140   0.21780   1.000
    C300    C    0.14506   0.18148   0.16858   1.000
    C301    C    0.64507   0.18148   0.16858   1.000
    C302    C    0.14486   0.17626   0.07628   1.000
    C303    C    0.64487   0.17626   0.07628   1.000
    C304    C    0.07913   0.06013   0.07721   1.000
    C305    C    0.57914   0.06014   0.07720   1.000
    C306    C    0.07647   0.06027   0.16973   1.000
    C307    C    0.57648   0.06028   0.16973   1.000
    C308    C    0.48973   0.90694   0.64273   1.000
    C309    C    0.98974   0.90694   0.64273   1.000
    C310    C    0.46852   0.81211   0.62939   1.000
    C311    C    0.96853   0.81211   0.62938   1.000
    C312    C    0.40759   0.79314   0.63454   1.000
    C313    C    0.90760   0.79314   0.63454   1.000
    C314    C    0.38203   0.70761   0.61782   1.000
    C315    C    0.88204   0.70761   0.61782   1.000
    C316    C    0.31674   0.69752   0.62269   1.000
    C317    C    0.81675   0.69752   0.62270   1.000
    C318    C    0.36091   0.87859   0.78216   1.000
    C319    C    0.86092   0.87859   0.78217   1.000
    C320    C    0.39509   0.81854   0.83140   1.000
    C321    C    0.89510   0.81854   0.83141   1.000
    C322    C    0.39488   0.82378   0.92370   1.000
    C323    C    0.89489   0.82377   0.92370   1.000
    C324    C    0.32917   0.93986   0.92283   1.000
    C325    C    0.82918   0.93986   0.92283   1.000
    C326    C    0.32651   0.93971   0.83031   1.000
    C327    C    0.82652   0.93971   0.83031   1.000
    C328    C    0.38969   0.33533   0.11841   1.000
    C329    C    0.88970   0.33533   0.11841   1.000
    C330    C    0.13964   0.66473   0.88140   1.000
    C331    C    0.63964   0.66474   0.88148   1.000
    C332    C    0.26468   0.38159   0.83525   1.000
    C333    C    0.76469   0.38159   0.83525   1.000
    C334    C    0.01464   0.61849   0.16460   1.000
    C335    C    0.51465   0.61850   0.16468   1.000
    C336    C    0.48537   0.16467   0.61840   1.000
    C337    C    0.98538   0.16468   0.61840   1.000
    C338    C    0.23532   0.83533   0.38156   1.000
    C339    C    0.73532   0.83533   0.38156   1.000
    C340    C    0.11032   0.11843   0.33529   1.000
    C341    C    0.61033   0.11843   0.33529   1.000
    C342    C    0.36036   0.88156   0.66472   1.000
    C343    C    0.86037   0.88156   0.66472   1.000
    C344    C    0.38678   0.02989   0.11625   1.000
    C345    C    0.88679   0.02989   0.11625   1.000
    C346    C    0.13674   0.97017   0.88370   1.000
    C347    C    0.63674   0.97018   0.88369   1.000
    C348    C    0.26175   0.38377   0.52986   1.000
    C349    C    0.76176   0.38376   0.52985   1.000
    C350    C    0.01175   0.61628   0.47008   1.000
    C351    C    0.51175   0.61628   0.47008   1.000
    C352    C    0.48826   0.47011   0.61624   1.000
    C353    C    0.98828   0.47013   0.61625   1.000
    C354    C    0.23825   0.52989   0.38375   1.000
    C355    C    0.73826   0.52989   0.38370   1.000
    C356    C    0.11323   0.11626   0.02989   1.000
    C357    C    0.61324   0.11626   0.02989   1.000
    C358    C    0.36326   0.88376   0.97012   1.000
    C359    C    0.86327   0.88376   0.97012   1.000
    C360    C    0.24249   0.38573   0.24577   1.000
    C361    C    0.74250   0.38574   0.24576   1.000
    C362    C    0.33987   0.40198   0.36273   1.000
    C363    C    0.83988   0.40198   0.36273   1.000
    C364    C    0.49246   0.61430   0.75419   1.000
    C365    C    0.99247   0.61432   0.75400   1.000
    C366    C    0.08986   0.59807   0.63719   1.000
    C367    C    0.58987   0.59808   0.63719   1.000
    C368    C    0.11747   0.25423   0.88570   1.000
    C369    C    0.61748   0.25424   0.88576   1.000
    C370    C    0.21486   0.13726   0.90193   1.000
    C371    C    0.71487   0.13726   0.90193   1.000
    C372    C    0.36747   0.74579   0.11428   1.000
    C373    C    0.86748   0.74579   0.11420   1.000
    C374    C    0.46488   0.86281   0.09803   1.000
    C375    C    0.96489   0.86280   0.09803   1.000
    C376    C    0.13253   0.11429   0.74576   1.000
    C377    C    0.63254   0.11431   0.74575   1.000
    C378    C    0.03513   0.09805   0.86276   1.000
    C379    C    0.53514   0.09803   0.86275   1.000
    C380    C    0.38253   0.88579   0.25421   1.000
    C381    C    0.88253   0.88580   0.25421   1.000
    C382    C    0.28514   0.90198   0.13725   1.000
    C383    C    0.78515   0.90198   0.13725   1.000
    C384    C    0.25752   0.24578   0.38571   1.000
    C385    C    0.75753   0.24578   0.38571   1.000
    C386    C    0.16013   0.36277   0.40196   1.000
    C387    C    0.66014   0.36277   0.40196   1.000
    C388    C    0.00753   0.75425   0.61424   1.000
    C389    C    0.50754   0.75425   0.61425   1.000
    C390    C    0.41014   0.63724   0.59803   1.000
    C391    C    0.91015   0.63724   0.59800   1.000
    O392    O    0.93783   0.18662   0.03658   1.000
    O393    O    0.43782   0.18662   0.03662   1.000
    O394    O    0.93389   0.05784   0.03666   1.000
    O395    O    0.43388   0.05785   0.03666   1.000
    O396    O    0.12905   0.14626   0.05308   1.000
    O397    O    0.09618   0.08820   0.05355   1.000
    O398    O    0.11911   0.11457   0.95850   1.000
    O399    O    0.62906   0.14626   0.05308   1.000
    O400    O    0.59619   0.08820   0.05354   1.000
    O401    O    0.61912   0.11457   0.95850   1.000
    O402    O    0.65810   0.19888   0.05644   1.000
    O403    O    0.15809   0.19888   0.05644   1.000
    O404    O    0.56614   0.03667   0.05784   1.000
    O405    O    0.06613   0.03667   0.05785   1.000
    O406    O    0.27225   0.37812   0.06917   1.000
    O407    O    0.77226   0.37813   0.06917   1.000
    O408    O    0.42221   0.12348   0.06019   1.000
    O409    O    0.40383   0.05355   0.08818   1.000
    O410    O    0.92222   0.12348   0.06019   1.000
    O411    O    0.90384   0.05355   0.08818   1.000
    O412    O    0.90635   0.19381   0.09082   1.000
    O413    O    0.40634   0.19381   0.09082   1.000
    O414    O    0.76351   0.32247   0.08244   1.000
    O415    O    0.26350   0.32246   0.08245   1.000
    O416    O    0.14496   0.17887   0.12243   1.000
    O417    O    0.64497   0.17887   0.12243   1.000
    O418    O    0.57781   0.06021   0.12346   1.000
    O419    O    0.07780   0.06020   0.12347   1.000
    O420    O    0.06974   0.77640   0.10408   1.000
    O421    O    0.56975   0.77641   0.10408   1.000
    O422    O    0.73714   0.36529   0.09187   1.000
    O423    O    0.23713   0.36528   0.09187   1.000
    O424    O    0.77093   0.36394   0.14049   1.000
    O425    O    0.27093   0.36393   0.14049   1.000
    O426    O    0.06425   0.83535   0.10962   1.000
    O427    O    0.56426   0.83536   0.10962   1.000
    O428    O    0.91995   0.87498   0.10544   1.000
    O429    O    0.97894   0.82762   0.10793   1.000
    O430    O    0.41994   0.87499   0.10544   1.000
    O431    O    0.47893   0.82762   0.10793   1.000
    O432    O    0.89720   0.56919   0.12137   1.000
    O433    O    0.39720   0.56919   0.12186   1.000
    O434    O    0.87125   0.81648   0.11353   1.000
    O435    O    0.88090   0.95853   0.11456   1.000
    O436    O    0.83008   0.89457   0.12505   1.000
    O437    O    0.87878   0.88648   0.18353   1.000
    O438    O    0.86915   0.88546   0.04149   1.000
    O439    O    0.37124   0.81648   0.11357   1.000
    O440    O    0.38089   0.95853   0.11456   1.000
    O441    O    0.33008   0.89457   0.12505   1.000
    O442    O    0.37877   0.88648   0.18353   1.000
    O443    O    0.36914   0.88546   0.04149   1.000
    O444    O    0.88699   0.71686   0.12180   1.000
    O445    O    0.38698   0.71687   0.12184   1.000
    O446    O    0.37096   0.05309   0.14624   1.000
    O447    O    0.87097   0.05309   0.14624   1.000
    O448    O    0.02563   0.79749   0.12027   1.000
    O449    O    0.98021   0.74968   0.12619   1.000
    O450    O    0.52563   0.79749   0.12027   1.000
    O451    O    0.48020   0.74968   0.12620   1.000
    O452    O    0.88942   0.27660   0.11989   1.000
    O453    O    0.86608   0.35041   0.16262   1.000
    O454    O    0.38941   0.27660   0.11989   1.000
    O455    O    0.36607   0.35041   0.16262   1.000
    O456    O    0.87205   0.19324   0.15141   1.000
    O457    O    0.37204   0.19324   0.15141   1.000
    O458    O    0.56555   0.80012   0.15758   1.000
    O459    O    0.06554   0.80012   0.15758   1.000
    O460    O    0.86209   0.59188   0.13472   1.000
    O461    O    0.36208   0.59188   0.13473   1.000
    O462    O    0.93697   0.69742   0.13198   1.000
    O463    O    0.89590   0.64052   0.13607   1.000
    O464    O    0.43696   0.69743   0.13198   1.000
    O465    O    0.39589   0.64052   0.13607   1.000
    O466    O    0.18576   0.89038   0.16475   1.000
    O467    O    0.68577   0.89038   0.16475   1.000
    O468    O    0.99104   0.66270   0.14957   1.000
    O469    O    0.49104   0.66271   0.14962   1.000
    O470    O    0.77109   0.89208   0.17244   1.000
    O471    O    0.27108   0.89208   0.17244   1.000
    O472    O    0.88846   0.58247   0.17753   1.000
    O473    O    0.38846   0.58247   0.17753   1.000
    O474    O    0.01436   0.61998   0.22336   1.000
    O475    O    0.51437   0.61998   0.22340   1.000
    O476    O    0.15834   0.20655   0.18523   1.000
    O477    O    0.12797   0.15144   0.19321   1.000
    O478    O    0.65835   0.20655   0.18523   1.000
    O479    O    0.62798   0.15144   0.19319   1.000
    O480    O    0.56220   0.03663   0.18660   1.000
    O481    O    0.59368   0.09084   0.19376   1.000
    O482    O    0.06219   0.03663   0.18656   1.000
    O483    O    0.09368   0.09084   0.19379   1.000
    O484    O    0.35505   0.12245   0.17884   1.000
    O485    O    0.34192   0.05645   0.19885   1.000
    O486    O    0.85506   0.12245   0.17884   1.000
    O487    O    0.84193   0.05645   0.19885   1.000
    O488    O    0.34167   0.18526   0.20652   1.000
    O489    O    0.84168   0.18526   0.20652   1.000
    O490    O    0.31198   0.36804   0.19737   1.000
    O491    O    0.26200   0.37817   0.21683   1.000
    O492    O    0.81199   0.36805   0.19737   1.000
    O493    O    0.76201   0.37818   0.21683   1.000
    O494    O    0.18445   0.84241   0.19999   1.000
    O495    O    0.22438   0.87974   0.20259   1.000
    O496    O    0.18025   0.89592   0.22370   1.000
    O497    O    0.68446   0.84241   0.19999   1.000
    O498    O    0.72439   0.87974   0.20259   1.000
    O499    O    0.68026   0.89591   0.22370   1.000
    O500    O    0.35522   0.37384   0.24960   1.000
    O501    O    0.85523   0.37384   0.24960   1.000
    O502    O    0.26979   0.87384   0.25039   1.000
    O503    O    0.76980   0.87384   0.25036   1.000
    O504    O    0.61061   0.11992   0.27654   1.000
    O505    O    0.11060   0.11992   0.27657   1.000
    O506    O    0.74625   0.38644   0.31644   1.000
    O507    O    0.24624   0.38644   0.31644   1.000
    O508    O    0.44476   0.39595   0.27628   1.000
    O509    O    0.94477   0.39594   0.27629   1.000
    O510    O    0.86302   0.87822   0.28310   1.000
    O511    O    0.36301   0.87822   0.28314   1.000
    O512    O    0.28335   0.68528   0.29346   1.000
    O513    O    0.78336   0.68528   0.29344   1.000
    O514    O    0.78312   0.55647   0.30113   1.000
    O515    O    0.28311   0.55647   0.30112   1.000
    O516    O    0.03129   0.59090   0.30616   1.000
    O517    O    0.99701   0.65148   0.30677   1.000
    O518    O    0.53130   0.59090   0.30616   1.000
    O519    O    0.49701   0.65148   0.30677   1.000
    O520    O    0.23651   0.08245   0.32242   1.000
    O521    O    0.73652   0.08245   0.32243   1.000
    O522    O    0.90064   0.37975   0.29739   1.000
    O523    O    0.85394   0.39209   0.32754   1.000
    O524    O    0.40063   0.37976   0.29739   1.000
    O525    O    0.35393   0.39209   0.32754   1.000
    O526    O    0.81304   0.86807   0.30255   1.000
    O527    O    0.75895   0.85041   0.33733   1.000
    O528    O    0.31303   0.86807   0.30260   1.000
    O529    O    0.25894   0.85041   0.33735   1.000
    O530    O    0.56277   0.53671   0.31332   1.000
    O531    O    0.06277   0.53671   0.31332   1.000
    O532    O    0.94057   0.34243   0.29999   1.000
    O533    O    0.44056   0.34245   0.29999   1.000
    O534    O    0.96666   0.70657   0.31477   1.000
    O535    O    0.46665   0.70657   0.31478   1.000
    O536    O    0.43925   0.39042   0.33522   1.000
    O537    O    0.93926   0.39041   0.33521   1.000
    O538    O    0.55946   0.30003   0.34240   1.000
    O539    O    0.05945   0.30003   0.34241   1.000
    O540    O    0.85409   0.86397   0.35944   1.000
    O541    O    0.35409   0.86397   0.35947   1.000
    O542    O    0.76998   0.62246   0.32113   1.000
    O543    O    0.75298   0.69324   0.34854   1.000
    O544    O    0.26998   0.62246   0.32112   1.000
    O545    O    0.25298   0.69324   0.34857   1.000
    O546    O    0.25406   0.55310   0.35372   1.000
    O547    O    0.75407   0.55310   0.35373   1.000
    O548    O    0.54717   0.56026   0.37647   1.000
    O549    O    0.04717   0.56026   0.37647   1.000
    O550    O    0.98004   0.67888   0.37757   1.000
    O551    O    0.48003   0.67888   0.37757   1.000
    O552    O    0.63395   0.16265   0.35036   1.000
    O553    O    0.13394   0.16265   0.35036   1.000
    O554    O    0.22909   0.14050   0.36390   1.000
    O555    O    0.26289   0.09187   0.36524   1.000
    O556    O    0.22776   0.06917   0.37808   1.000
    O557    O    0.72909   0.14050   0.36390   1.000
    O558    O    0.76289   0.09187   0.36525   1.000
    O559    O    0.72777   0.06916   0.37809   1.000
    O560    O    0.79495   0.39456   0.37492   1.000
    O561    O    0.29494   0.39457   0.37492   1.000
    O562    O    0.68804   0.19739   0.36800   1.000
    O563    O    0.64480   0.24963   0.37379   1.000
    O564    O    0.18803   0.19739   0.36801   1.000
    O565    O    0.14479   0.24963   0.37380   1.000
    O566    O    0.73801   0.21685   0.37814   1.000
    O567    O    0.23801   0.21685   0.37814   1.000
    O568    O    0.59938   0.29743   0.37971   1.000
    O569    O    0.56076   0.33527   0.39037   1.000
    O570    O    0.55525   0.27632   0.39589   1.000
    O571    O    0.09937   0.29743   0.37972   1.000
    O572    O    0.06075   0.33527   0.39038   1.000
    O573    O    0.05524   0.27632   0.39591   1.000
    O574    O    0.73560   0.77660   0.38007   1.000
    O575    O    0.71868   0.69380   0.40915   1.000
    O576    O    0.23560   0.77660   0.38008   1.000
    O577    O    0.21868   0.69380   0.40916   1.000
    O578    O    0.64608   0.32758   0.39205   1.000
    O579    O    0.14608   0.32758   0.39206   1.000
    O580    O    0.74414   0.45852   0.38541   1.000
    O581    O    0.72120   0.55354   0.41178   1.000
    O582    O    0.24413   0.45852   0.38543   1.000
    O583    O    0.22120   0.55354   0.41181   1.000
    O584    O    0.75377   0.31646   0.38642   1.000
    O585    O    0.25376   0.31647   0.38642   1.000
    O586    O    0.70508   0.37496   0.39454   1.000
    O587    O    0.75589   0.38545   0.45848   1.000
    O588    O    0.20507   0.37496   0.39454   1.000
    O589    O    0.25588   0.38546   0.45849   1.000
    O590    O    0.38789   0.86532   0.40809   1.000
    O591    O    0.36150   0.82248   0.41749   1.000
    O592    O    0.35277   0.87814   0.43081   1.000
    O593    O    0.88789   0.86532   0.40809   1.000
    O594    O    0.86151   0.82249   0.41750   1.000
    O595    O    0.85277   0.87815   0.43081   1.000
    O596    O    0.55884   0.53672   0.44207   1.000
    O597    O    0.52880   0.58823   0.44640   1.000
    O598    O    0.05884   0.53672   0.44207   1.000
    O599    O    0.02879   0.58823   0.44640   1.000
    O600    O    0.96691   0.69888   0.44357   1.000
    O601    O    0.99594   0.64628   0.44690   1.000
    O602    O    0.46690   0.69888   0.44357   1.000
    O603    O    0.49594   0.64628   0.44690   1.000
    O604    O    0.20280   0.62346   0.43979   1.000
    O605    O    0.18719   0.68660   0.46335   1.000
    O606    O    0.70281   0.62346   0.43979   1.000
    O607    O    0.68719   0.68660   0.46335   1.000
    O608    O    0.69114   0.55783   0.46332   1.000
    O609    O    0.19114   0.55783   0.46328   1.000
    O610    O    0.00587   0.61458   0.54146   1.000
    O611    O    0.50588   0.61458   0.54146   1.000
    O612    O    0.43725   0.31333   0.53668   1.000
    O613    O    0.93726   0.31334   0.53668   1.000
    O614    O    0.44118   0.44211   0.53670   1.000
    O615    O    0.94119   0.44212   0.53670   1.000
    O616    O    0.74594   0.35377   0.55305   1.000
    O617    O    0.77881   0.41182   0.55350   1.000
    O618    O    0.24594   0.35377   0.55303   1.000
    O619    O    0.27881   0.41183   0.55351   1.000
    O620    O    0.71689   0.30117   0.55643   1.000
    O621    O    0.21689   0.30116   0.55640   1.000
    O622    O    0.80887   0.46335   0.55778   1.000
    O623    O    0.30886   0.46335   0.55778   1.000
    O624    O    0.10282   0.12188   0.56917   1.000
    O625    O    0.60282   0.12186   0.56917   1.000
    O626    O    0.45285   0.37649   0.56023   1.000
    O627    O    0.47122   0.44644   0.58820   1.000
    O628    O    0.95286   0.37650   0.56023   1.000
    O629    O    0.97123   0.44645   0.58820   1.000
    O630    O    0.96873   0.30619   0.59086   1.000
    O631    O    0.46872   0.30618   0.59085   1.000
    O632    O    0.61156   0.17753   0.58244   1.000
    O633    O    0.11155   0.17756   0.58247   1.000
    O634    O    0.23002   0.32117   0.62238   1.000
    O635    O    0.73003   0.32117   0.62241   1.000
    O636    O    0.29719   0.43982   0.62341   1.000
    O637    O    0.79720   0.43982   0.62341   1.000
    O638    O    0.30527   0.72366   0.60407   1.000
    O639    O    0.80528   0.72365   0.60409   1.000
    O640    O    0.63794   0.13472   0.59185   1.000
    O641    O    0.13794   0.13475   0.59186   1.000
    O642    O    0.60413   0.13608   0.64049   1.000
    O643    O    0.10412   0.13609   0.64050   1.000
    O644    O    0.31076   0.66471   0.60958   1.000
    O645    O    0.81077   0.66470   0.60961   1.000
    O646    O    0.95507   0.62506   0.60542   1.000
    O647    O    0.89609   0.67242   0.60791   1.000
    O648    O    0.45507   0.62506   0.60543   1.000
    O649    O    0.39609   0.67242   0.60792   1.000
    O650    O    0.97783   0.93086   0.62187   1.000
    O651    O    0.47782   0.93086   0.62187   1.000
    O652    O    0.00377   0.68357   0.61354   1.000
    O653    O    0.99414   0.54151   0.61455   1.000
    O654    O    0.04493   0.60548   0.62501   1.000
    O655    O    0.99623   0.61360   0.68342   1.000
    O656    O    0.50377   0.68357   0.61354   1.000
    O657    O    0.49414   0.54150   0.61454   1.000
    O658    O    0.54494   0.60548   0.62501   1.000
    O659    O    0.49623   0.61359   0.68351   1.000
    O660    O    0.98803   0.78318   0.62181   1.000
    O661    O    0.48803   0.78318   0.62182   1.000
    O662    O    0.50408   0.44693   0.64623   1.000
    O663    O    0.00408   0.44694   0.64624   1.000
    O664    O    0.34939   0.70257   0.62025   1.000
    O665    O    0.39481   0.75038   0.62618   1.000
    O666    O    0.84940   0.70256   0.62026   1.000
    O667    O    0.89482   0.75038   0.62618   1.000
    O668    O    0.48565   0.22340   0.61990   1.000
    O669    O    0.50898   0.14961   0.66264   1.000
    O670    O    0.98566   0.22341   0.61991   1.000
    O671    O    0.00898   0.14962   0.66264   1.000
    O672    O    0.50301   0.30678   0.65143   1.000
    O673    O    0.00301   0.30680   0.65145   1.000
    O674    O    0.30945   0.69994   0.65756   1.000
    O675    O    0.80946   0.69994   0.65758   1.000
    O676    O    0.51294   0.90817   0.63466   1.000
    O677    O    0.01294   0.90817   0.63471   1.000
    O678    O    0.93806   0.80263   0.63196   1.000
    O679    O    0.97913   0.85953   0.63605   1.000
    O680    O    0.43805   0.80263   0.63196   1.000
    O681    O    0.47913   0.85953   0.63606   1.000
    O682    O    0.68925   0.60966   0.66464   1.000
    O683    O    0.18924   0.60961   0.66465   1.000
    O684    O    0.88398   0.83735   0.64963   1.000
    O685    O    0.38397   0.83735   0.64963   1.000
    O686    O    0.60392   0.60797   0.67237   1.000
    O687    O    0.10391   0.60796   0.67237   1.000
    O688    O    0.98656   0.91757   0.67753   1.000
    O689    O    0.48655   0.91758   0.67753   1.000
    O690    O    0.36064   0.88008   0.72344   1.000
    O691    O    0.86064   0.88008   0.72344   1.000
    O692    O    0.21665   0.29347   0.68522   1.000
    O693    O    0.24702   0.34858   0.69318   1.000
    O694    O    0.71666   0.29348   0.68518   1.000
    O695    O    0.74703   0.34858   0.69318   1.000
    O696    O    0.31281   0.46338   0.68653   1.000
    O697    O    0.28132   0.40918   0.69374   1.000
    O698    O    0.81282   0.46338   0.68653   1.000
    O699    O    0.78133   0.40918   0.69373   1.000
    O700    O    0.51999   0.37759   0.67884   1.000
    O701    O    0.53311   0.44360   0.69882   1.000
    O702    O    0.01998   0.37760   0.67885   1.000
    O703    O    0.03310   0.44361   0.69883   1.000
    O704    O    0.53337   0.31479   0.70653   1.000
    O705    O    0.03336   0.31480   0.70654   1.000
    O706    O    0.06305   0.13199   0.69740   1.000
    O707    O    0.11303   0.12185   0.71683   1.000
    O708    O    0.56306   0.13199   0.69739   1.000
    O709    O    0.61303   0.12187   0.71683   1.000
    O710    O    0.69055   0.65764   0.69987   1.000
    O711    O    0.65062   0.62031   0.70250   1.000
    O712    O    0.69474   0.60413   0.72358   1.000
    O713    O    0.19055   0.65760   0.69988   1.000
    O714    O    0.15061   0.62028   0.70251   1.000
    O715    O    0.19473   0.60410   0.72360   1.000
    O716    O    0.51981   0.12619   0.74964   1.000
    O717    O    0.01981   0.12620   0.74965   1.000
    O718    O    0.60520   0.62621   0.75031   1.000
    O719    O    0.10519   0.62620   0.75032   1.000
    O720    O    0.76440   0.38010   0.77652   1.000
    O721    O    0.26440   0.38010   0.77653   1.000
    O722    O    0.62877   0.11360   0.81643   1.000
    O723    O    0.12876   0.11358   0.81644   1.000
    O724    O    0.43027   0.10405   0.77635   1.000
    O725    O    0.93027   0.10411   0.77638   1.000
    O726    O    0.01197   0.62187   0.78302   1.000
    O727    O    0.51197   0.62186   0.78312   1.000
    O728    O    0.59165   0.81479   0.79341   1.000
    O729    O    0.09165   0.81478   0.79342   1.000
    O730    O    0.59190   0.94360   0.80085   1.000
    O731    O    0.09189   0.94359   0.80112   1.000
    O732    O    0.34371   0.90915   0.80623   1.000
    O733    O    0.37800   0.84857   0.80678   1.000
    O734    O    0.84372   0.90915   0.80624   1.000
    O735    O    0.87801   0.84857   0.80679   1.000
    O736    O    0.13849   0.41753   0.82242   1.000
    O737    O    0.63850   0.41754   0.82243   1.000
    O738    O    0.47439   0.12025   0.79745   1.000
    O739    O    0.52108   0.10793   0.82757   1.000
    O740    O    0.97439   0.12029   0.79746   1.000
    O741    O    0.02108   0.10794   0.82758   1.000
    O742    O    0.06194   0.63200   0.80256   1.000
    O743    O    0.11602   0.64964   0.83724   1.000
    O744    O    0.56195   0.63199   0.80256   1.000
    O745    O    0.61603   0.64966   0.83728   1.000
    O746    O    0.81225   0.96335   0.81340   1.000
    O747    O    0.31224   0.96335   0.81344   1.000
    O748    O    0.93448   0.15762   0.80009   1.000
    O749    O    0.43446   0.15755   0.80008   1.000
    O750    O    0.40836   0.79347   0.81473   1.000
    O751    O    0.90837   0.79347   0.81474   1.000
    O752    O    0.43576   0.10957   0.83530   1.000
    O753    O    0.93577   0.10965   0.83532   1.000
    O754    O    0.81557   0.20000   0.84236   1.000
    O755    O    0.31557   0.20000   0.84239   1.000
    O756    O    0.52088   0.63609   0.85946   1.000
    O757    O    0.02087   0.63610   0.85946   1.000
    O758    O    0.60503   0.87761   0.82109   1.000
    O759    O    0.62201   0.80683   0.84850   1.000
    O760    O    0.10502   0.87760   0.82111   1.000
    O761    O    0.12200   0.80681   0.84851   1.000
    O762    O    0.62093   0.94697   0.85370   1.000
    O763    O    0.12093   0.94696   0.85371   1.000
    O764    O    0.32784   0.93979   0.87657   1.000
    O765    O    0.82785   0.93979   0.87657   1.000
    O766    O    0.39499   0.82116   0.87755   1.000
    O767    O    0.89499   0.82116   0.87755   1.000
    O768    O    0.24106   0.33737   0.85034   1.000
    O769    O    0.74107   0.33737   0.85034   1.000
    O770    O    0.14591   0.35951   0.86390   1.000
    O771    O    0.11210   0.40813   0.86525   1.000
    O772    O    0.14722   0.43085   0.87807   1.000
    O773    O    0.64592   0.35952   0.86391   1.000
    O774    O    0.61212   0.40814   0.86526   1.000
    O775    O    0.64723   0.43086   0.87808   1.000
    O776    O    0.58007   0.10546   0.87493   1.000
    O777    O    0.08006   0.10546   0.87494   1.000
    O778    O    0.68698   0.30263   0.86801   1.000
    O779    O    0.73021   0.25040   0.87378   1.000
    O780    O    0.18697   0.30263   0.86800   1.000
    O781    O    0.23021   0.25040   0.87379   1.000
    O782    O    0.13699   0.28317   0.87814   1.000
    O783    O    0.63700   0.28317   0.87817   1.000
    O784    O    0.77563   0.20261   0.87968   1.000
    O785    O    0.81425   0.16476   0.89033   1.000
    O786    O    0.81976   0.22372   0.89586   1.000
    O787    O    0.27562   0.20261   0.87972   1.000
    O788    O    0.31424   0.16478   0.89039   1.000
    O789    O    0.31974   0.22373   0.89591   1.000
    O790    O    0.63937   0.72347   0.88000   1.000
    O791    O    0.65629   0.80627   0.90908   1.000
    O792    O    0.13936   0.72346   0.87996   1.000
    O793    O    0.15628   0.80626   0.90909   1.000
    O794    O    0.72893   0.17245   0.89203   1.000
    O795    O    0.22892   0.17245   0.89204   1.000
    O796    O    0.63087   0.04153   0.88540   1.000
    O797    O    0.65378   0.94653   0.91174   1.000
    O798    O    0.13087   0.04152   0.88541   1.000
    O799    O    0.15378   0.94651   0.91175   1.000
    O800    O    0.12123   0.18355   0.88641   1.000
    O801    O    0.62124   0.18356   0.88644   1.000
    O802    O    0.16993   0.12507   0.89452   1.000
    O803    O    0.66993   0.12507   0.89452   1.000
    O804    O    0.48707   0.63474   0.90808   1.000
    O805    O    0.51345   0.67757   0.91750   1.000
    O806    O    0.52218   0.62190   0.93078   1.000
    O807    O    0.98707   0.63475   0.90809   1.000
    O808    O    0.01344   0.67757   0.91750   1.000
    O809    O    0.02217   0.62191   0.93078   1.000
    O810    O    0.81618   0.96332   0.94216   1.000
    O811    O    0.84623   0.91181   0.94647   1.000
    O812    O    0.31617   0.96332   0.94220   1.000
    O813    O    0.34622   0.91181   0.94647   1.000
    O814    O    0.40811   0.80117   0.94353   1.000
    O815    O    0.37907   0.85377   0.94691   1.000
    O816    O    0.90812   0.80116   0.94353   1.000
    O817    O    0.87908   0.85376   0.94691   1.000
    O818    O    0.67216   0.87661   0.93971   1.000
    O819    O    0.68776   0.81347   0.96327   1.000
    O820    O    0.17215   0.87660   0.93973   1.000
    O821    O    0.18775   0.81346   0.96327   1.000
    O822    O    0.68382   0.94225   0.96325   1.000
    O823    O    0.18382   0.94223   0.96326   1.000
loop_
    _geom_bond_atom_site_label_1
    _geom_bond_atom_site_label_2
    _geom_bond_distance
    _geom_bond_site_symmetry_2
    _ccdc_geom_bond_type
    C27    O392      0.54562      .   S
    C187   O392      0.54562      .   S
    C26    O393      0.54523      .   S
    C186   O393      0.54523      .   S
    C25    O394      0.54516      .   S
    C185   O394      0.54516      .   S
    C24    O395      0.54515      .   S
    C184   O395      0.54515      .   S
    C356   O396      0.67466      .   S
    C302   O396      0.67466      .   S
    C356   O397      0.67549      .   S
    C304   O397      0.67549      .   S
    C356   O398      1.07827  1_554   S
    C2     O398      1.07827      .   S
    C357   O399      0.67465      .   S
    C303   O399      0.67465      .   S
    C357   O400      0.67546      .   S
    C305   O400      0.67546      .   S
    C357   O401      1.07827  1_554   S
    C3     O401      1.07827      .   S
    C143   O402      0.54390      .   S
    C303   O402      0.54390      .   S
    C142   O403      0.54391      .   S
    C302   O403      0.54391      .   S
    C145   O404      0.54514      .   S
    C305   O404      0.54514      .   S
    C144   O405      0.54519      .   S
    C304   O405      0.54519      .   S
    C10    O406      0.54896      .   S
    C168   O406      0.54896      .   S
    C11    O407      0.54896      .   S
    C169   O407      0.54896      .   S
    C184   O408      0.69376      .   S
    C186   O408      0.69376      .   S
    C184   O409      0.67551      .   S
    C344   O409      0.67551      .   S
    C185   O410      0.69377      .   S
    C187   O410      0.69377      .   S
    C185   O411      0.67550      .   S
    C345   O411      0.67550      .   S
    C187   O412      0.70453      .   S
    C179   O412      0.70453      .   S
    C186   O413      0.70453      .   S
    C178   O413      0.70453      .   S
    C13    O414      0.55001      .   S
    C169   O414      0.55001      .   S
    C12    O415      0.54996      .   S
    C168   O415      0.54996      .   S
    C302   O416      0.69252      .   S
    C300   O416      0.69252      .   S
    C303   O417      0.69252      .   S
    C301   O417      0.69252      .   S
    C305   O418      0.69381      .   S
    C307   O418      0.69381      .   S
    C304   O419      0.69373      .   S
    C306   O419      0.69373      .   S
    C76    O420      0.54870      .   S
    C236   O420      0.54870      .   S
    C77    O421      0.54866      .   S
    C237   O421      0.54866      .   S
    C9     O422      0.54782      .   S
    C169   O422      0.54782      .   S
    C8     O423      0.54781      .   S
    C168   O423      0.54781      .   S
    C169   O424      0.75760      .   S
    C171   O424      0.75760      .   S
    C168   O425      0.75761      .   S
    C170   O425      0.75761      .   S
    C78    O426      0.54682      .   S
    C236   O426      0.54682      .   S
    C79    O427      0.54681      .   S
    C237   O427      0.54681      .   S
    C375   O428      1.05623      .   S
    C1     O428      1.05623      .   S
    C375   O429      0.63601      .   S
    C235   O429      0.63601      .   S
    C374   O430      1.05624      .   S
    C0     O430      1.05624      .   S
    C374   O431      0.63601      .   S
    C234   O431      0.63601      .   S
    C71    O432      0.55322      .   S
    C229   O432      0.55322      .   S
    C70    O433      0.54896      .   S
    C228   O433      0.54896      .   S
    C1     O434      1.06245      .   S
    C373   O434      1.06245      .   S
    C1     O435      1.07780      .   S
    C345   O435      1.07780  1_545   S
    C1     O436      1.05620      .   S
    C383   O436      1.05620      .   S
    C1     O437      1.06246      .   S
    C381   O437      1.06246      .   S
    C1     O438      1.07812      .   S
    C359   O438      1.07812  1_556   S
    C0     O439      1.06245      .   S
    C372   O439      1.06245      .   S
    C0     O440      1.07781      .   S
    C344   O440      1.07781  1_545   S
    C0     O441      1.05619      .   S
    C382   O441      1.05619      .   S
    C0     O442      1.06246      .   S
    C380   O442      1.06246      .   S
    C0     O443      1.07812      .   S
    C358   O443      1.07812  1_556   S
    C373   O444      0.63451      .   S
    C231   O444      0.63451      .   S
    C372   O445      0.63440      .   S
    C230   O445      0.63440      .   S
    C344   O446      0.67462      .   S
    C182   O446      0.67462      .   S
    C345   O447      0.67463      .   S
    C183   O447      0.67463      .   S
    C235   O448      0.75597  1_655   S
    C236   O448      0.75597      .   S
    C235   O449      0.71590      .   S
    C233   O449      0.71590      .   S
    C234   O450      0.75615      .   S
    C237   O450      0.75615      .   S
    C234   O451      0.71592      .   S
    C232   O451      0.71592      .   S
    C329   O452      0.88008      .   S
    C179   O452      0.88008      .   S
    C329   O453      0.88615      .   S
    C173   O453      0.88615      .   S
    C328   O454      0.88008      .   S
    C178   O454      0.88008      .   S
    C328   O455      0.88615      .   S
    C172   O455      0.88615      .   S
    C179   O456      0.70237      .   S
    C181   O456      0.70237      .   S
    C178   O457      0.70237      .   S
    C180   O457      0.70237      .   S
    C237   O458      0.54997      .   S
    C75    O458      0.54997      .   S
    C236   O459      0.54991      .   S
    C74    O459      0.54991      .   S
    C69    O460      0.54784      .   S
    C229   O460      0.54784      .   S
    C68    O461      0.54780      .   S
    C228   O461      0.54780      .   S
    C231   O462      0.71658      .   S
    C233   O462      0.71658      .   S
    C231   O463      0.75763      .   S
    C229   O463      0.75763      .   S
    C230   O464      0.71657      .   S
    C232   O464      0.71657      .   S
    C230   O465      0.75763      .   S
    C228   O465      0.75763      .   S
    C118   O466      0.54683      .   S
    C276   O466      0.54683      .   S
    C119   O467      0.54682      .   S
    C277   O467      0.54682      .   S
    C233   O468      0.88588      .   S
    C334   O468      0.88588  1_455   S
    C232   O469      0.88614      .   S
    C335   O469      0.88614      .   S
    C383   O470      0.63603      .   S
    C275   O470      0.63603      .   S
    C382   O471      0.63603      .   S
    C274   O471      0.63603      .   S
    C229   O472      0.54996      .   S
    C73    O472      0.54996      .   S
    C228   O473      0.54996      .   S
    C72    O473      0.54996      .   S
    C334   O474      0.88064      .   S
    C238   O474      0.88064      .   S
    C335   O475      0.88004      .   S
    C239   O475      0.88004      .   S
    C300   O476      0.54474      .   S
    C140   O476      0.54474      .   S
    C300   O477      0.70236      .   S
    C298   O477      0.70236      .   S
    C301   O478      0.54473      .   S
    C141   O478      0.54473      .   S
    C301   O479      0.70217      .   S
    C299   O479      0.70217      .   S
    C307   O480      0.54521      .   S
    C147   O480      0.54521      .   S
    C307   O481      0.70437      .   S
    C299   O481      0.70437      .   S
    C306   O482      0.54492      .   S
    C146   O482      0.54492      .   S
    C306   O483      0.70457      .   S
    C298   O483      0.70457      .   S
    C182   O484      0.69251      .   S
    C180   O484      0.69251      .   S
    C182   O485      0.54391      .   S
    C22    O485      0.54391      .   S
    C183   O486      0.69251      .   S
    C181   O486      0.69251      .   S
    C183   O487      0.54392      .   S
    C23    O487      0.54392      .   S
    C180   O488      0.54475      .   S
    C20    O488      0.54475      .   S
    C181   O489      0.54475      .   S
    C21    O489      0.54475      .   S
    C170   O490      0.71658      .   S
    C172   O490      0.71658      .   S
    C170   O491      0.63442      .   S
    C360   O491      0.63442      .   S
    C171   O492      0.71658      .   S
    C173   O492      0.71658      .   S
    C171   O493      0.63438      .   S
    C361   O493      0.63438      .   S
    C276   O494      0.54994      .   S
    C114   O494      0.54994      .   S
    C276   O495      0.75616      .   S
    C274   O495      0.75616      .   S
    C276   O496      0.54867      .   S
    C116   O496      0.54867      .   S
    C277   O497      0.54994      .   S
    C115   O497      0.54994      .   S
    C277   O498      0.75616      .   S
    C275   O498      0.75616      .   S
    C277   O499      0.54868      .   S
    C117   O499      0.54868      .   S
    C172   O500      0.71595      .   S
    C174   O500      0.71595      .   S
    C173   O501      0.71594      .   S
    C175   O501      0.71594      .   S
    C274   O502      0.71592      .   S
    C272   O502      0.71592      .   S
    C275   O503      0.71564      .   S
    C273   O503      0.71564      .   S
    C299   O504      0.88042      .   S
    C341   O504      0.88042      .   S
    C298   O505      0.88005      .   S
    C340   O505      0.88005      .   S
    C361   O506      1.06254      .   S
    C5     O506      1.06254      .   S
    C360   O507      1.06246      .   S
    C4     O507      1.06246      .   S
    C16    O508      0.54868      .   S
    C176   O508      0.54868      .   S
    C17    O509      0.54864      .   S
    C177   O509      0.54864      .   S
    C381   O510      0.63402      .   S
    C271   O510      0.63402      .   S
    C380   O511      0.63437      .   S
    C270   O511      0.63437      .   S
    C120   O512      0.54475      .   S
    C280   O512      0.54475      .   S
    C121   O513      0.54455      .   S
    C281   O513      0.54455      .   S
    C123   O514      0.54406      .   S
    C283   O514      0.54406      .   S
    C122   O515      0.54359      .   S
    C282   O515      0.54359      .   S
    C238   O516      0.70457      .   S
    C246   O516      0.70457      .   S
    C238   O517      0.70225  1_455   S
    C241   O517      0.70225      .   S
    C239   O518      0.70457      .   S
    C247   O518      0.70457      .   S
    C239   O519      0.70235      .   S
    C240   O519      0.70235      .   S
    C132   O520      0.54996      .   S
    C288   O520      0.54996      .   S
    C133   O521      0.54998      .   S
    C289   O521      0.54998      .   S
    C175   O522      0.75615      .   S
    C177   O522      0.75615      .   S
    C175   O523      0.63597      .   S
    C363   O523      0.63597      .   S
    C174   O524      0.75615      .   S
    C176   O524      0.75615      .   S
    C174   O525      0.63598      .   S
    C362   O525      0.63598      .   S
    C273   O526      0.71652      .   S
    C271   O526      0.71652      .   S
    C273   O527      0.88635      .   S
    C339   O527      0.88635      .   S
    C272   O528      0.71655      .   S
    C270   O528      0.71655      .   S
    C272   O529      0.88613      .   S
    C338   O529      0.88613      .   S
    C87    O530      0.54522      .   S
    C247   O530      0.54522      .   S
    C86    O531      0.54521      .   S
    C246   O531      0.54521      .   S
    C15    O532      0.54993      .   S
    C177   O532      0.54993      .   S
    C14    O533      0.54993      .   S
    C176   O533      0.54993      .   S
    C81    O534      0.54476      .   S
    C241   O534      0.54476      .   S
    C80    O535      0.54471      .   S
    C240   O535      0.54471      .   S
    C176   O536      0.54683      .   S
    C18    O536      0.54683      .   S
    C177   O537      0.54662      .   S
    C19    O537      0.54662      .   S
    C135   O538      0.54989      .   S
    C297   O538      0.54989      .   S
    C134   O539      0.54997      .   S
    C296   O539      0.54997      .   S
    C271   O540      0.75816      .   S
    C269   O540      0.75816      .   S
    C270   O541      0.75768      .   S
    C268   O541      0.75768      .   S
    C281   O542      0.69252      .   S
    C283   O542      0.69252      .   S
    C281   O543      0.70251      .   S
    C279   O543      0.70251      .   S
    C280   O544      0.69248      .   S
    C282   O544      0.69248      .   S
    C280   O545      0.70236      .   S
    C278   O545      0.70236      .   S
    C282   O546      0.67497      .   S
    C354   O546      0.67497      .   S
    C283   O547      0.67438      .   S
    C355   O547      0.67438      .   S
    C247   O548      0.69373      .   S
    C245   O548      0.69373      .   S
    C246   O549      0.69373      .   S
    C244   O549      0.69373      .   S
    C241   O550      0.69254      .   S
    C243   O550      0.69254      .   S
    C240   O551      0.69254      .   S
    C242   O551      0.69254      .   S
    C341   O552      0.88614      .   S
    C293   O552      0.88614      .   S
    C340   O553      0.88614      .   S
    C292   O553      0.88614      .   S
    C288   O554      0.75765      .   S
    C290   O554      0.75765      .   S
    C288   O555      0.54782      .   S
    C128   O555      0.54782      .   S
    C288   O556      0.54896      .   S
    C130   O556      0.54896      .   S
    C289   O557      0.75763      .   S
    C291   O557      0.75763      .   S
    C289   O558      0.54781      .   S
    C129   O558      0.54781      .   S
    C289   O559      0.54896      .   S
    C131   O559      0.54896      .   S
    C363   O560      1.05619      .   S
    C5     O560      1.05619      .   S
    C362   O561      1.05618      .   S
    C4     O561      1.05618      .   S
    C293   O562      0.71657      .   S
    C291   O562      0.71657      .   S
    C293   O563      0.71590      .   S
    C295   O563      0.71590      .   S
    C292   O564      0.71657      .   S
    C290   O564      0.71657      .   S
    C292   O565      0.71591      .   S
    C294   O565      0.71591      .   S
    C291   O566      0.63440      .   S
    C385   O566      0.63440      .   S
    C290   O567      0.63439      .   S
    C384   O567      0.63439      .   S
    C297   O568      0.75615      .   S
    C295   O568      0.75615      .   S
    C297   O569      0.54684      .   S
    C139   O569      0.54684      .   S
    C297   O570      0.54869      .   S
    C137   O570      0.54869      .   S
    C296   O571      0.75616      .   S
    C294   O571      0.75616      .   S
    C296   O572      0.54680      .   S
    C138   O572      0.54680      .   S
    C296   O573      0.54865      .   S
    C136   O573      0.54865      .   S
    C279   O574      0.88008      .   S
    C339   O574      0.88008      .   S
    C279   O575      0.70458      .   S
    C287   O575      0.70458      .   S
    C278   O576      0.88008      .   S
    C338   O576      0.88008      .   S
    C278   O577      0.70453      .   S
    C286   O577      0.70453      .   S
    C295   O578      0.63603      .   S
    C387   O578      0.63603      .   S
    C294   O579      0.63603      .   S
    C386   O579      0.63603      .   S
    C355   O580      1.07802      .   S
    C5     O580      1.07802      .   S
    C355   O581      0.67574      .   S
    C285   O581      0.67574      .   S
    C354   O582      1.07801      .   S
    C4     O582      1.07801      .   S
    C354   O583      0.67551      .   S
    C284   O583      0.67551      .   S
    C385   O584      1.06244      .   S
    C5     O584      1.06244      .   S
    C384   O585      1.06243      .   S
    C4     O585      1.06243      .   S
    C5     O586      1.05618      .   S
    C387   O586      1.05618      .   S
    C5     O587      1.07806      .   S
    C349   O587      1.07806      .   S
    C4     O588      1.05617      .   S
    C386   O588      1.05617      .   S
    C4     O589      1.07813      .   S
    C348   O589      1.07813      .   S
    C268   O590      0.54781      .   S
    C108   O590      0.54781      .   S
    C268   O591      0.54995      .   S
    C112   O591      0.54995      .   S
    C268   O592      0.54894      .   S
    C110   O592      0.54894      .   S
    C269   O593      0.54782      .   S
    C109   O593      0.54782      .   S
    C269   O594      0.54997      .   S
    C113   O594      0.54997      .   S
    C269   O595      0.54894      .   S
    C111   O595      0.54894      .   S
    C245   O596      0.54517      .   S
    C85    O596      0.54517      .   S
    C245   O597      0.67550      .   S
    C351   O597      0.67550      .   S
    C244   O598      0.54517      .   S
    C84    O598      0.54517      .   S
    C244   O599      0.67550      .   S
    C350   O599      0.67550      .   S
    C243   O600      0.54390      .   S
    C83    O600      0.54390      .   S
    C243   O601      0.67455      .   S
    C350   O601      0.67455  1_455   S
    C242   O602      0.54389      .   S
    C82    O602      0.54389      .   S
    C242   O603      0.67465      .   S
    C351   O603      0.67465      .   S
    C286   O604      0.69376      .   S
    C284   O604      0.69376      .   S
    C286   O605      0.54521      .   S
    C126   O605      0.54521      .   S
    C287   O606      0.69376      .   S
    C285   O606      0.69376      .   S
    C287   O607      0.54521      .   S
    C127   O607      0.54521      .   S
    C285   O608      0.54517      .   S
    C125   O608      0.54517      .   S
    C284   O609      0.54474      .   S
    C124   O609      0.54474      .   S
    C350   O610      1.07819      .   S
    C6     O610      1.07819  1_655   S
    C351   O611      1.07819      .   S
    C7     O611      1.07819      .   S
    C106   O612      0.54520      .   S
    C266   O612      0.54520      .   S
    C107   O613      0.54514      .   S
    C267   O613      0.54514      .   S
    C104   O614      0.54515      .   S
    C264   O614      0.54515      .   S
    C105   O615      0.54519      .   S
    C265   O615      0.54519      .   S
    C349   O616      0.67465      .   S
    C223   O616      0.67465      .   S
    C349   O617      0.67551      .   S
    C225   O617      0.67551      .   S
    C348   O618      0.67439      .   S
    C222   O618      0.67439      .   S
    C348   O619      0.67547      .   S
    C224   O619      0.67547      .   S
    C63    O620      0.54389      .   S
    C223   O620      0.54389      .   S
    C62    O621      0.54364      .   S
    C222   O621      0.54364      .   S
    C65    O622      0.54518      .   S
    C225   O622      0.54518      .   S
    C64    O623      0.54515      .   S
    C224   O623      0.54515      .   S
    C90    O624      0.54894      .   S
    C248   O624      0.54894      .   S
    C91    O625      0.54895      .   S
    C249   O625      0.54895      .   S
    C264   O626      0.69376      .   S
    C266   O626      0.69376      .   S
    C264   O627      0.67548      .   S
    C352   O627      0.67548      .   S
    C265   O628      0.69376      .   S
    C267   O628      0.69376      .   S
    C265   O629      0.67549      .   S
    C353   O629      0.67549      .   S
    C267   O630      0.70461      .   S
    C259   O630      0.70461      .   S
    C266   O631      0.70443      .   S
    C258   O631      0.70443      .   S
    C93    O632      0.54996      .   S
    C249   O632      0.54996      .   S
    C92    O633      0.54995      .   S
    C248   O633      0.54995      .   S
    C222   O634      0.69298      .   S
    C220   O634      0.69298      .   S
    C223   O635      0.69254      .   S
    C221   O635      0.69254      .   S
    C224   O636      0.69376      .   S
    C226   O636      0.69376      .   S
    C225   O637      0.69376      .   S
    C227   O637      0.69376      .   S
    C156   O638      0.54869      .   S
    C316   O638      0.54869      .   S
    C157   O639      0.54860      .   S
    C317   O639      0.54860      .   S
    C89    O640      0.54781      .   S
    C249   O640      0.54781      .   S
    C88    O641      0.54781      .   S
    C248   O641      0.54781      .   S
    C249   O642      0.75767      .   S
    C251   O642      0.75767      .   S
    C248   O643      0.75764      .   S
    C250   O643      0.75764      .   S
    C158   O644      0.54682      .   S
    C316   O644      0.54682      .   S
    C159   O645      0.54678      .   S
    C317   O645      0.54678      .   S
    C391   O646      1.05609      .   S
    C6     O646      1.05609      .   S
    C391   O647      0.63607      .   S
    C315   O647      0.63607      .   S
    C390   O648      1.05625      .   S
    C7     O648      1.05625      .   S
    C390   O649      0.63602      .   S
    C314   O649      0.63602      .   S
    C151   O650      0.54895      .   S
    C309   O650      0.54895      .   S
    C150   O651      0.54894      .   S
    C308   O651      0.54894      .   S
    C6     O652      1.06242  1_655   S
    C388   O652      1.06242      .   S
    C6     O653      1.07803      .   S
    C353   O653      1.07803      .   S
    C6     O654      1.05623  1_655   S
    C366   O654      1.05623      .   S
    C6     O655      1.06100      .   S
    C365   O655      1.06100      .   S
    C7     O656      1.06244      .   S
    C389   O656      1.06244      .   S
    C7     O657      1.07810      .   S
    C352   O657      1.07810      .   S
    C7     O658      1.05623      .   S
    C367   O658      1.05623      .   S
    C7     O659      1.06243      .   S
    C364   O659      1.06243      .   S
    C388   O660      0.63426  1_455   S
    C311   O660      0.63426      .   S
    C389   O661      0.63439      .   S
    C310   O661      0.63439      .   S
    C352   O662      0.67467      .   S
    C263   O662      0.67467      .   S
    C353   O663      0.67454  1_655   S
    C262   O663      0.67454      .   S
    C314   O664      0.75615      .   S
    C316   O664      0.75615      .   S
    C314   O665      0.71591      .   S
    C312   O665      0.71591      .   S
    C315   O666      0.75614      .   S
    C317   O666      0.75614      .   S
    C315   O667      0.71591      .   S
    C313   O667      0.71591      .   S
    C336   O668      0.88010      .   S
    C258   O668      0.88010      .   S
    C336   O669      0.88657      .   S
    C253   O669      0.88657      .   S
    C337   O670      0.88009      .   S
    C259   O670      0.88009      .   S
    C337   O671      0.88650  1_655   S
    C252   O671      0.88650      .   S
    C258   O672      0.70248      .   S
    C261   O672      0.70248      .   S
    C259   O673      0.70227  1_655   S
    C260   O673      0.70227      .   S
    C316   O674      0.54997      .   S
    C154   O674      0.54997      .   S
    C317   O675      0.55002      .   S
    C155   O675      0.55002      .   S
    C149   O676      0.54792      .   S
    C308   O676      0.54792      .   S
    C148   O677      0.54761      .   S
    C309   O677      0.54761  1_655   S
    C311   O678      0.71658      .   S
    C313   O678      0.71658      .   S
    C311   O679      0.75763      .   S
    C309   O679      0.75763      .   S
    C310   O680      0.71657      .   S
    C312   O680      0.71657      .   S
    C310   O681      0.75764      .   S
    C308   O681      0.75764      .   S
    C39    O682      0.54678      .   S
    C197   O682      0.54678      .   S
    C38    O683      0.54681      .   S
    C196   O683      0.54681      .   S
    C313   O684      0.88613      .   S
    C343   O684      0.88613      .   S
    C312   O685      0.88613      .   S
    C342   O685      0.88613      .   S
    C367   O686      0.63597      .   S
    C195   O686      0.63597      .   S
    C366   O687      0.63603      .   S
    C194   O687      0.63603      .   S
    C309   O688      0.55001      .   S
    C153   O688      0.55001      .   S
    C308   O689      0.55001      .   S
    C152   O689      0.55001      .   S
    C342   O690      0.88005      .   S
    C318   O690      0.88005      .   S
    C343   O691      0.88013      .   S
    C319   O691      0.88013      .   S
    C220   O692      0.54475      .   S
    C60    O692      0.54475      .   S
    C220   O693      0.70237      .   S
    C218   O693      0.70237      .   S
    C221   O694      0.54444      .   S
    C61    O694      0.54444      .   S
    C221   O695      0.70233      .   S
    C219   O695      0.70233      .   S
    C226   O696      0.54520      .   S
    C66    O696      0.54520      .   S
    C226   O697      0.70456      .   S
    C218   O697      0.70456      .   S
    C227   O698      0.54521      .   S
    C67    O698      0.54521      .   S
    C227   O699      0.70452      .   S
    C219   O699      0.70452      .   S
    C263   O700      0.69252      .   S
    C261   O700      0.69252      .   S
    C263   O701      0.54390      .   S
    C103   O701      0.54390      .   S
    C262   O702      0.69252      .   S
    C260   O702      0.69252      .   S
    C262   O703      0.54389      .   S
    C102   O703      0.54389      .   S
    C261   O704      0.54474      .   S
    C101   O704      0.54474      .   S
    C260   O705      0.54475      .   S
    C100   O705      0.54475      .   S
    C250   O706      0.71658      .   S
    C252   O706      0.71658      .   S
    C250   O707      0.63441      .   S
    C376   O707      0.63441      .   S
    C251   O708      0.71658      .   S
    C253   O708      0.71658      .   S
    C251   O709      0.63436      .   S
    C377   O709      0.63436      .   S
    C197   O710      0.54993      .   S
    C35    O710      0.54993      .   S
    C197   O711      0.75614      .   S
    C195   O711      0.75614      .   S
    C197   O712      0.54869      .   S
    C37    O712      0.54869      .   S
    C196   O713      0.54995      .   S
    C34    O713      0.54995      .   S
    C196   O714      0.75614      .   S
    C194   O714      0.75614      .   S
    C196   O715      0.54871      .   S
    C36    O715      0.54871      .   S
    C253   O716      0.71589      .   S
    C255   O716      0.71589      .   S
    C252   O717      0.71590      .   S
    C254   O717      0.71590      .   S
    C195   O718      0.71595      .   S
    C193   O718      0.71595      .   S
    C194   O719      0.71588      .   S
    C192   O719      0.71588      .   S
    C219   O720      0.88012      .   S
    C333   O720      0.88012      .   S
    C218   O721      0.88005      .   S
    C332   O721      0.88005      .   S
    C377   O722      1.06258      .   S
    C3     O722      1.06258      .   S
    C376   O723      1.06250      .   S
    C2     O723      1.06250      .   S
    C96    O724      0.54871      .   S
    C256   O724      0.54871      .   S
    C97    O725      0.54870      .   S
    C257   O725      0.54870      .   S
    C365   O726      0.63526  1_655   S
    C190   O726      0.63526      .   S
    C364   O727      0.63443      .   S
    C191   O727      0.63443      .   S
    C41    O728      0.54473      .   S
    C201   O728      0.54473      .   S
    C40    O729      0.54472      .   S
    C200   O729      0.54472      .   S
    C43    O730      0.54622      .   S
    C203   O730      0.54622      .   S
    C42    O731      0.54393      .   S
    C202   O731      0.54393      .   S
    C318   O732      0.70457      .   S
    C326   O732      0.70457      .   S
    C318   O733      0.70236      .   S
    C320   O733      0.70236      .   S
    C319   O734      0.70453      .   S
    C327   O734      0.70453      .   S
    C319   O735      0.70236      .   S
    C321   O735      0.70236      .   S
    C52    O736      0.54997      .   S
    C208   O736      0.54997      .   S
    C53    O737      0.54997      .   S
    C209   O737      0.54997      .   S
    C255   O738      0.75615      .   S
    C256   O738      0.75615      .   S
    C255   O739      0.63600      .   S
    C379   O739      0.63600      .   S
    C254   O740      0.75596  1_455   S
    C257   O740      0.75596      .   S
    C254   O741      0.63599      .   S
    C378   O741      0.63599      .   S
    C192   O742      0.71658      .   S
    C190   O742      0.71658      .   S
    C192   O743      0.88567      .   S
    C330   O743      0.88567      .   S
    C193   O744      0.71656      .   S
    C191   O744      0.71656      .   S
    C193   O745      0.88612      .   S
    C331   O745      0.88612      .   S
    C167   O746      0.54549      .   S
    C327   O746      0.54549      .   S
    C166   O747      0.54522      .   S
    C326   O747      0.54522      .   S
    C95    O748      0.54994      .   S
    C257   O748      0.54994      .   S
    C94    O749      0.54994      .   S
    C256   O749      0.54994      .   S
    C160   O750      0.54473      .   S
    C320   O750      0.54473      .   S
    C161   O751      0.54476      .   S
    C321   O751      0.54476      .   S
    C256   O752      0.54680      .   S
    C98    O752      0.54680      .   S
    C257   O753      0.54677      .   S
    C99    O753      0.54677      .   S
    C55    O754      0.54995      .   S
    C217   O754      0.54995      .   S
    C54    O755      0.55027      .   S
    C216   O755      0.55027      .   S
    C191   O756      0.75763      .   S
    C189   O756      0.75763      .   S
    C190   O757      0.75762      .   S
    C188   O757      0.75762      .   S
    C201   O758      0.69251      .   S
    C203   O758      0.69251      .   S
    C201   O759      0.70233      .   S
    C199   O759      0.70233      .   S
    C200   O760      0.69251      .   S
    C202   O760      0.69251      .   S
    C200   O761      0.70234      .   S
    C198   O761      0.70234      .   S
    C203   O762      0.67464      .   S
    C347   O762      0.67464      .   S
    C202   O763      0.67466      .   S
    C346   O763      0.67466      .   S
    C326   O764      0.69376      .   S
    C324   O764      0.69376      .   S
    C327   O765      0.69376      .   S
    C325   O765      0.69376      .   S
    C320   O766      0.69253      .   S
    C322   O766      0.69253      .   S
    C321   O767      0.69245      .   S
    C323   O767      0.69245      .   S
    C332   O768      0.88615      .   S
    C212   O768      0.88615      .   S
    C333   O769      0.88614      .   S
    C213   O769      0.88614      .   S
    C208   O770      0.75764      .   S
    C210   O770      0.75764      .   S
    C208   O771      0.54780      .   S
    C48    O771      0.54780      .   S
    C208   O772      0.54894      .   S
    C50    O772      0.54894      .   S
    C209   O773      0.75764      .   S
    C211   O773      0.75764      .   S
    C209   O774      0.54780      .   S
    C49    O774      0.54780      .   S
    C209   O775      0.54894      .   S
    C51    O775      0.54894      .   S
    C379   O776      1.05624      .   S
    C3     O776      1.05624      .   S
    C378   O777      1.05624      .   S
    C2     O777      1.05624      .   S
    C213   O778      0.71657      .   S
    C211   O778      0.71657      .   S
    C213   O779      0.71590      .   S
    C215   O779      0.71590      .   S
    C212   O780      0.71657      .   S
    C210   O780      0.71657      .   S
    C212   O781      0.71591      .   S
    C214   O781      0.71591      .   S
    C210   O782      0.63434      .   S
    C368   O782      0.63434      .   S
    C211   O783      0.63440      .   S
    C369   O783      0.63440      .   S
    C217   O784      0.75616      .   S
    C215   O784      0.75616      .   S
    C217   O785      0.54682      .   S
    C59    O785      0.54682      .   S
    C217   O786      0.54869      .   S
    C57    O786      0.54869      .   S
    C216   O787      0.75615      .   S
    C214   O787      0.75615      .   S
    C216   O788      0.54683      .   S
    C58    O788      0.54683      .   S
    C216   O789      0.54867      .   S
    C56    O789      0.54867      .   S
    C199   O790      0.88008      .   S
    C331   O790      0.88008      .   S
    C199   O791      0.70456      .   S
    C207   O791      0.70456      .   S
    C198   O792      0.88007      .   S
    C330   O792      0.88007      .   S
    C198   O793      0.70457      .   S
    C206   O793      0.70457      .   S
    C215   O794      0.63602      .   S
    C371   O794      0.63602      .   S
    C214   O795      0.63601      .   S
    C370   O795      0.63601      .   S
    C347   O796      1.07768  1_565   S
    C3     O796      1.07768      .   S
    C347   O797      0.67549      .   S
    C205   O797      0.67549      .   S
    C346   O798      1.07773  1_565   S
    C2     O798      1.07773      .   S
    C346   O799      0.67549      .   S
    C204   O799      0.67549      .   S
    C368   O800      1.06239      .   S
    C2     O800      1.06239      .   S
    C369   O801      1.06238      .   S
    C3     O801      1.06238      .   S
    C2     O802      1.05619      .   S
    C370   O802      1.05619      .   S
    C3     O803      1.05620      .   S
    C371   O803      1.05620      .   S
    C189   O804      0.54781      .   S
    C28    O804      0.54781      .   S
    C189   O805      0.54995      .   S
    C33    O805      0.54995      .   S
    C189   O806      0.54895      .   S
    C31    O806      0.54895      .   S
    C188   O807      0.54763  1_455   S
    C29    O807      0.54763      .   S
    C188   O808      0.54996      .   S
    C32    O808      0.54996      .   S
    C188   O809      0.54897      .   S
    C30    O809      0.54897      .   S
    C325   O810      0.54488      .   S
    C165   O810      0.54488      .   S
    C325   O811      0.67550      .   S
    C359   O811      0.67550      .   S
    C324   O812      0.54516      .   S
    C164   O812      0.54516      .   S
    C324   O813      0.67550      .   S
    C358   O813      0.67550      .   S
    C322   O814      0.54391      .   S
    C162   O814      0.54391      .   S
    C322   O815      0.67467      .   S
    C358   O815      0.67467      .   S
    C323   O816      0.54390      .   S
    C163   O816      0.54390      .   S
    C323   O817      0.67467      .   S
    C359   O817      0.67467      .   S
    C207   O818      0.69376      .   S
    C205   O818      0.69376      .   S
    C207   O819      0.54521      .   S
    C47    O819      0.54521      .   S
    C206   O820      0.69376      .   S
    C204   O820      0.69376      .   S
    C206   O821      0.54519      .   S
    C46    O821      0.54519      .   S
    C205   O822      0.54518      .   S
    C45    O822      0.54518      .   S
    C204   O823      0.54515      .   S
    C44    O823      0.54515      .   S
