# CIF file generated by openbabel 2.4.90, see http://openbabel.sf.net
data_I
_chemical_name_common ''
_cell_length_a 23.02
_cell_length_b 14.98
_cell_length_c 14.982
_cell_angle_alpha 90.008
_cell_angle_beta 89.98
_cell_angle_gamma 90.016
_space_group_name_H-M_alt 'P 1'
_space_group_name_Hall 'P 1'
loop_
    _symmetry_equiv_pos_as_xyz
    x,y,z
loop_
    _atom_site_label
    _atom_site_type_symbol
    _atom_site_fract_x
    _atom_site_fract_y
    _atom_site_fract_z
    _atom_site_occupancy
    N0      N    0.03259   0.13456   0.70689   1.000
    N1      N    0.96743   0.70691   0.13455   1.000
    N2      N    0.90760   0.79314   0.63454   1.000
    N3      N    0.34245   0.36548   0.20684   1.000
    N4      N    0.09241   0.63456   0.79308   1.000
    N5      N    0.21743   0.29316   0.86543   1.000
    N6      N    0.71744   0.29316   0.86543   1.000
    N7      N    0.78257   0.86549   0.29310   1.000
    N8      N    0.15756   0.20687   0.36544   1.000
    N9      N    0.28257   0.86549   0.29314   1.000
    N10     N    0.84246   0.36548   0.20684   1.000
    N11     N    0.59242   0.63457   0.79308   1.000
    N12     N    0.65757   0.20686   0.36544   1.000
    N13     N    0.46742   0.70691   0.13456   1.000
    N14     N    0.53259   0.13455   0.70688   1.000
    N15     N    0.40759   0.79314   0.63454   1.000
    Zr16    Zr   0.12499   0.11287   0.88712   1.000
    O17     O    0.12610   0.19672   0.88072   1.000
    O18     O    0.17750   0.13465   0.88748   1.000
    O19     O    0.12989   0.03148   0.88504   1.000
    O20     O    0.12391   0.11927   0.80327   1.000
    O21     O    0.07250   0.11252   0.86537   1.000
    O22     O    0.12009   0.11493   0.96853   1.000
    Zr23    Zr   0.50001   0.61288   0.61284   1.000
    O24     O    0.50109   0.61928   0.69668   1.000
    O25     O    0.49891   0.69674   0.61924   1.000
    O26     O    0.55250   0.61253   0.63459   1.000
    O27     O    0.50490   0.61495   0.53143   1.000
    O28     O    0.49511   0.53146   0.61491   1.000
    O29     O    0.44751   0.63464   0.61248   1.000
    Zr30    Zr   1.00000   0.61289   0.61284   1.000
    O31     O    0.99891   0.69674   0.61924   1.000
    O32     O    0.94750   0.63464   0.61248   1.000
    O33     O    0.00489   0.61495   0.53143   1.000
    O34     O    0.99511   0.53147   0.61491   1.000
    O35     O    0.05250   0.61253   0.63459   1.000
    O36     O    0.00109   0.61929   0.69665   1.000
    Zr37    Zr   0.62500   0.11288   0.88712   1.000
    O38     O    0.62989   0.03149   0.88503   1.000
    O39     O    0.62391   0.11928   0.80327   1.000
    O40     O    0.67750   0.13465   0.88747   1.000
    O41     O    0.57250   0.11251   0.86536   1.000
    O42     O    0.62611   0.19673   0.88073   1.000
    O43     O    0.62010   0.11494   0.96853   1.000
    Zr44    Zr   0.37501   0.88716   0.11286   1.000
    O45     O    0.37390   0.88078   0.19670   1.000
    O46     O    0.37610   0.80331   0.11926   1.000
    O47     O    0.42751   0.86541   0.11250   1.000
    O48     O    0.37991   0.96857   0.11492   1.000
    O49     O    0.32251   0.88752   0.13464   1.000
    O50     O    0.37011   0.88510   0.03146   1.000
    Zr51    Zr   0.87502   0.88716   0.11286   1.000
    O52     O    0.87391   0.88078   0.19670   1.000
    O53     O    0.87012   0.88510   0.03145   1.000
    O54     O    0.92752   0.86541   0.11250   1.000
    O55     O    0.87611   0.80331   0.11920   1.000
    O56     O    0.87992   0.96857   0.11492   1.000
    O57     O    0.82252   0.88752   0.13464   1.000
    Zr58    Zr   0.25000   0.38715   0.38712   1.000
    O59     O    0.25490   0.38509   0.46852   1.000
    O60     O    0.30250   0.38751   0.36534   1.000
    O61     O    0.24890   0.30329   0.38072   1.000
    O62     O    0.25111   0.38075   0.30327   1.000
    O63     O    0.19750   0.36538   0.38748   1.000
    O64     O    0.24510   0.46855   0.38506   1.000
    Zr65    Zr   0.75001   0.38715   0.38712   1.000
    O66     O    0.75112   0.38075   0.30327   1.000
    O67     O    0.75491   0.38509   0.46852   1.000
    O68     O    0.80251   0.38751   0.36534   1.000
    O69     O    0.69751   0.36537   0.38748   1.000
    O70     O    0.74511   0.46855   0.38506   1.000
    O71     O    0.74891   0.30329   0.38072   1.000
loop_
    _geom_bond_atom_site_label_1
    _geom_bond_atom_site_label_2
    _geom_bond_distance
    _geom_bond_site_symmetry_2
    _ccdc_geom_bond_type
    Zr16   O17       1.25997      .   S
    N5     O17       2.56090      .   S
    Zr16   O18       1.25177      .   S
    N5     O18       2.56729      .   S
    Zr16   O19       1.22488      .   S
    N4     O19       6.16372  1_565   S
    Zr16   O20       1.26010      .   S
    N0     O20       2.56110      .   S
    Zr16   O21       1.25175      .   S
    N0     O21       2.56757      .   S
    Zr16   O22       1.22527      .   S
    N8     O22       6.16456  1_554   S
    Zr23   O24       1.26004      .   S
    N11    O24       2.56110      .   S
    Zr23   O25       1.26003      .   S
    N15    O25       2.56112      .   S
    Zr23   O26       1.25180      .   S
    N11    O26       2.56755      .   S
    Zr23   O27       1.22524      .   S
    N13    O27       6.16461      .   S
    Zr23   O28       1.22518      .   S
    N14    O28       6.16453      .   S
    Zr23   O29       1.25183      .   S
    N15    O29       2.56751      .   S
    Zr30   O31       1.26002      .   S
    N2     O31       2.56083      .   S
    Zr30   O32       1.25168      .   S
    N2     O32       2.56740      .   S
    Zr30   O33       1.22527  1_655   S
    N1     O33       6.16466  1_655   S
    Zr30   O34       1.22513      .   S
    N0     O34       6.16447  1_455   S
    Zr30   O35       1.25182  1_655   S
    N4     O35       2.56752      .   S
    Zr30   O36       1.25959  1_655   S
    N4     O36       2.56130      .   S
    Zr37   O38       1.22486      .   S
    N11    O38       6.16369  1_565   S
    Zr37   O39       1.26016      .   S
    N14    O39       2.56115      .   S
    Zr37   O40       1.25176      .   S
    N6     O40       2.56727      .   S
    Zr37   O41       1.25183      .   S
    N14    O41       2.56762      .   S
    Zr37   O42       1.25996      .   S
    N6     O42       2.56088      .   S
    Zr37   O43       1.22527      .   S
    N12    O43       6.16454  1_554   S
    Zr44   O45       1.26002      .   S
    N9     O45       2.56100      .   S
    Zr44   O46       1.26006      .   S
    N13    O46       2.56110      .   S
    Zr44   O47       1.25181      .   S
    N13    O47       2.56753      .   S
    Zr44   O48       1.22495      .   S
    N3     O48       6.16381  1_545   S
    Zr44   O49       1.25176      .   S
    N9     O49       2.56748      .   S
    Zr44   O50       1.22519      .   S
    N15    O50       6.16430  1_556   S
    Zr51   O52       1.25999      .   S
    N7     O52       2.56072      .   S
    Zr51   O53       1.22524      .   S
    N2     O53       6.16425  1_556   S
    Zr51   O54       1.25175      .   S
    N1     O54       2.56757      .   S
    Zr51   O55       1.26001      .   S
    N1     O55       2.56119      .   S
    Zr51   O56       1.22494      .   S
    N10    O56       6.16384  1_545   S
    Zr51   O57       1.25177      .   S
    N7     O57       2.56695      .   S
    Zr58   O59       1.22516      .   S
    N5     O59       6.16438      .   S
    Zr58   O60       1.25176      .   S
    N3     O60       2.56749      .   S
    Zr58   O61       1.26001      .   S
    N8     O61       2.56090      .   S
    Zr58   O62       1.26005      .   S
    N3     O62       2.56101      .   S
    Zr58   O63       1.25174      .   S
    N8     O63       2.56735      .   S
    Zr58   O64       1.22510      .   S
    N9     O64       6.16404      .   S
    Zr65   O66       1.26009      .   S
    N10    O66       2.56100      .   S
    Zr65   O67       1.22512      .   S
    N6     O67       6.16441      .   S
    Zr65   O68       1.25177      .   S
    N10    O68       2.56747      .   S
    Zr65   O69       1.25174      .   S
    N12    O69       2.56734      .   S
    Zr65   O70       1.22511      .   S
    N7     O70       6.16417      .   S
    Zr65   O71       1.26002      .   S
    N12    O71       2.56089      .   S
