# CIF file generated by openbabel 2.4.90, see http://openbabel.sf.net
data_I
_chemical_name_common ''
_cell_length_a 23.442
_cell_length_b 23.974
_cell_length_c 14.059
_cell_angle_alpha 112.345
_cell_angle_beta 89.896
_cell_angle_gamma 118.644
_space_group_name_H-M_alt 'P 1'
_space_group_name_Hall 'P 1'
loop_
    _symmetry_equiv_pos_as_xyz
    x,y,z
loop_
    _atom_site_label
    _atom_site_type_symbol
    _atom_site_fract_x
    _atom_site_fract_y
    _atom_site_fract_z
    _atom_site_occupancy
    Zn0     Zn   0.16816   0.85875   0.75525   1.000
    Zn1     Zn   0.66818   0.35876   0.75523   1.000
    Zn2     Zn   0.66817   0.85872   0.75500   1.000
    Zn3     Zn   0.19290   0.36274   0.25987   1.000
    Zn4     Zn   0.19292   0.86277   0.25999   1.000
    Zn5     Zn   0.69292   0.36272   0.25989   1.000
    Zn6     Zn   0.69295   0.86275   0.26002   1.000
    Zn7     Zn   0.16817   0.35880   0.75529   1.000
