# CIF file generated by openbabel 2.4.90, see http://openbabel.sf.net
data_I
_chemical_name_common ''
_cell_length_a 23.442
_cell_length_b 23.974
_cell_length_c 14.059
_cell_angle_alpha 112.345
_cell_angle_beta 89.896
_cell_angle_gamma 118.644
_space_group_name_H-M_alt 'P 1'
_space_group_name_Hall 'P 1'
loop_
    _symmetry_equiv_pos_as_xyz
    x,y,z
loop_
    _atom_site_label
    _atom_site_type_symbol
    _atom_site_fract_x
    _atom_site_fract_y
    _atom_site_fract_z
    _atom_site_occupancy
    Zr0     Zr   0.16817   0.35880   0.75529   1.000
    Zr1     Zr   0.16816   0.85875   0.75525   1.000
    Zr2     Zr   0.66818   0.35876   0.75523   1.000
    Zr3     Zr   0.66817   0.85872   0.75500   1.000
    Zr4     Zr   0.19290   0.36274   0.25987   1.000
    Zr5     Zr   0.19292   0.86277   0.25999   1.000
    Zr6     Zr   0.69292   0.36272   0.25989   1.000
    Zr7     Zr   0.69295   0.86275   0.26002   1.000
    N8      N    0.70020   0.61399   0.01772   1.000
    O9      O    0.68054   0.50649   0.90482   1.000
    O10     O    0.70120   0.71892   0.12167   1.000
    N11     N    0.42781   0.85764   0.50385   1.000
    O12     O    0.31245   0.86419   0.60432   1.000
    O13     O    0.54520   0.85356   0.40617   1.000
    N14     N    0.91442   0.61445   0.52047   1.000
    O15     O    0.82723   0.50819   0.40769   1.000
    O16     O    0.01740   0.71773   0.62159   1.000
    N17     N    0.91441   0.11452   0.52054   1.000
    O18     O    0.82724   0.00824   0.40779   1.000
    O19     O    0.01740   0.21779   0.62165   1.000
    N20     N    0.41440   0.11452   0.52052   1.000
    O21     O    0.32722   0.00825   0.40776   1.000
    O22     O    0.51739   0.21778   0.62161   1.000
    N23     N    0.41441   0.61446   0.52045   1.000
    O24     O    0.32721   0.50821   0.40767   1.000
    O25     O    0.51739   0.71773   0.62151   1.000
    N26     N    0.93004   0.35756   0.00376   1.000
    O27     O    0.05275   0.36625   0.10693   1.000
    O28     O    0.80784   0.35140   0.90339   1.000
    N29     N    0.93004   0.85749   0.00374   1.000
    O30     O    0.05276   0.86622   0.10697   1.000
    O31     O    0.80783   0.85135   0.90330   1.000
    N32     N    0.43007   0.35755   0.00375   1.000
    O33     O    0.55278   0.36622   0.10692   1.000
    O34     O    0.30785   0.35141   0.90341   1.000
    N35     N    0.43007   0.85748   0.00375   1.000
    O36     O    0.55279   0.86620   0.10698   1.000
    O37     O    0.30785   0.85136   0.90339   1.000
    N38     N    0.92783   0.85764   0.50384   1.000
    O39     O    0.81246   0.86418   0.60424   1.000
    O40     O    0.04520   0.85358   0.40616   1.000
    N41     N    0.42781   0.35766   0.50381   1.000
    O42     O    0.31245   0.36422   0.60430   1.000
    O43     O    0.54519   0.35357   0.40608   1.000
    N44     N    0.92783   0.35767   0.50383   1.000
    O45     O    0.81246   0.36421   0.60430   1.000
    O46     O    0.04519   0.35358   0.40610   1.000
    N47     N    0.20009   0.11397   0.01765   1.000
    O48     O    0.18046   0.00646   0.90478   1.000
    O49     O    0.20111   0.21891   0.12156   1.000
    N50     N    0.20016   0.61402   0.01771   1.000
    O51     O    0.18052   0.50651   0.90484   1.000
    O52     O    0.20116   0.71895   0.12163   1.000
    N53     N    0.70013   0.11394   0.01765   1.000
    O54     O    0.68049   0.00643   0.90471   1.000
    O55     O    0.70115   0.21888   0.12158   1.000
loop_
    _geom_bond_atom_site_label_1
    _geom_bond_atom_site_label_2
    _geom_bond_distance
    _geom_bond_site_symmetry_2
    _ccdc_geom_bond_type
    N8     O9        2.26455  1_554   S
    Zr2    O9        3.22552      .   S
    N8     O10       2.36909      .   S
    Zr7    O10       3.35380      .   S
    N11    O12       3.09166      .   S
    Zr1    O12       3.96508      .   S
    N11    O13       3.09998      .   S
    Zr7    O13       3.98172      .   S
    N14    O15       2.26496      .   S
    Zr6    O15       3.22176      .   S
    N14    O16       2.36311  1_655   S
    Zr1    O16       3.34510      .   S
    N17    O18       2.26487      .   S
    Zr7    O18       3.22156  1_565   S
    N17    O19       2.36317  1_655   S
    Zr0    O19       3.34514      .   S
    N20    O21       2.26488      .   S
    Zr5    O21       3.22158  1_565   S
    N20    O22       2.36311      .   S
    Zr2    O22       3.34504      .   S
    N23    O24       2.26496      .   S
    Zr4    O24       3.22176      .   S
    N23    O25       2.36291      .   S
    Zr3    O25       3.34464      .   S
    N26    O27       3.10364  1_655   S
    Zr4    O27       3.98131      .   S
    N26    O28       3.10966  1_554   S
    Zr2    O28       3.99340      .   S
    N29    O30       3.10364  1_655   S
    Zr5    O30       3.98142      .   S
    N29    O31       3.11048  1_554   S
    Zr3    O31       3.99477      .   S
    N32    O33       3.10393      .   S
    Zr6    O33       3.98163      .   S
    N32    O34       3.10999  1_554   S
    Zr0    O34       3.99375      .   S
    N35    O36       3.10390      .   S
    Zr7    O36       3.98170      .   S
    N35    O37       3.11050  1_554   S
    Zr1    O37       3.99425      .   S
    N38    O39       3.09126      .   S
    Zr3    O39       3.96383      .   S
    N38    O40       3.09948  1_655   S
    Zr5    O40       3.98117      .   S
    N41    O42       3.09167      .   S
    Zr0    O42       3.96534      .   S
    N41    O43       3.10024      .   S
    Zr6    O43       3.98185      .   S
    N44    O45       3.09153      .   S
    Zr2    O45       3.96493      .   S
    N44    O46       3.09975  1_655   S
    Zr4    O46       3.98158      .   S
    N47    O48       2.26466  1_554   S
    Zr1    O48       3.22559  1_565   S
    N47    O49       2.36892      .   S
    Zr4    O49       3.35355      .   S
    N50    O51       2.26455  1_554   S
    Zr0    O51       3.22551      .   S
    N50    O52       2.36895      .   S
    Zr5    O52       3.35371      .   S
    N53    O54       2.26481  1_554   S
    Zr3    O54       3.22604  1_565   S
    N53    O55       2.36901      .   S
    Zr6    O55       3.35367      .   S
