# CIF file generated by openbabel 2.4.90, see http://openbabel.sf.net
data_I
_chemical_name_common ''
_cell_length_a 23.442
_cell_length_b 23.974
_cell_length_c 14.059
_cell_angle_alpha 112.345
_cell_angle_beta 89.896
_cell_angle_gamma 118.644
_space_group_name_H-M_alt 'P 1'
_space_group_name_Hall 'P 1'
loop_
    _symmetry_equiv_pos_as_xyz
    x,y,z
loop_
    _atom_site_label
    _atom_site_type_symbol
    _atom_site_fract_x
    _atom_site_fract_y
    _atom_site_fract_z
    _atom_site_occupancy
    N0      N    0.70020   0.61399   0.01772   1.000
    N1      N    0.42781   0.85764   0.50385   1.000
    N2      N    0.91442   0.61445   0.52047   1.000
    N3      N    0.91441   0.11452   0.52054   1.000
    N4      N    0.41440   0.11452   0.52052   1.000
    N5      N    0.41441   0.61446   0.52045   1.000
    N6      N    0.93004   0.35756   0.00376   1.000
    N7      N    0.93004   0.85749   0.00374   1.000
    N8      N    0.43007   0.35755   0.00375   1.000
    N9      N    0.43007   0.85748   0.00375   1.000
    N10     N    0.92783   0.85764   0.50384   1.000
    N11     N    0.42781   0.35766   0.50381   1.000
    N12     N    0.92783   0.35767   0.50383   1.000
    N13     N    0.20009   0.11397   0.01765   1.000
    N14     N    0.20016   0.61402   0.01771   1.000
    N15     N    0.70013   0.11394   0.01765   1.000
    Zr16    Zr   0.16817   0.35880   0.75529   1.000
    O17     O    0.09279   0.28829   0.68847   1.000
    O18     O    0.17435   0.43265   0.83006   1.000
    O19     O    0.23801   0.35510   0.82935   1.000
    O20     O    0.24031   0.36151   0.67980   1.000
    Zr21    Zr   0.69292   0.36272   0.25989   1.000
    O22     O    0.76008   0.43545   0.33379   1.000
    O23     O    0.61906   0.35814   0.33298   1.000
    O24     O    0.62285   0.36447   0.18341   1.000
    O25     O    0.69704   0.29080   0.19073   1.000
    Zr26    Zr   0.19292   0.86277   0.25999   1.000
    O27     O    0.11906   0.85818   0.33308   1.000
    O28     O    0.12284   0.86450   0.18348   1.000
    O29     O    0.26007   0.93551   0.33388   1.000
    O30     O    0.19704   0.79086   0.19081   1.000
    Zr31    Zr   0.16816   0.85875   0.75525   1.000
    O32     O    0.23800   0.85505   0.82932   1.000
    O33     O    0.17431   0.93261   0.83001   1.000
    O34     O    0.09278   0.78824   0.68842   1.000
    O35     O    0.24030   0.86147   0.67979   1.000
    Zr36    Zr   0.66817   0.85872   0.75500   1.000
    O37     O    0.74031   0.86145   0.67962   1.000
    O38     O    0.73800   0.85503   0.82915   1.000
    O39     O    0.67433   0.93258   0.82985   1.000
    O40     O    0.59278   0.78823   0.68825   1.000
    Zr41    Zr   0.19290   0.36274   0.25987   1.000
    O42     O    0.12282   0.36450   0.18340   1.000
    O43     O    0.11904   0.35816   0.33299   1.000
    O44     O    0.26005   0.43548   0.33377   1.000
    O45     O    0.19701   0.29083   0.19071   1.000
    Zr46    Zr   0.69295   0.86275   0.26002   1.000
    O47     O    0.62287   0.86447   0.18350   1.000
    O48     O    0.76009   0.93549   0.33390   1.000
    O49     O    0.61908   0.85815   0.33310   1.000
    O50     O    0.69708   0.79084   0.19084   1.000
    Zr51    Zr   0.66818   0.35876   0.75523   1.000
    O52     O    0.73801   0.35508   0.82931   1.000
    O53     O    0.59279   0.28827   0.68842   1.000
    O54     O    0.74032   0.36148   0.67976   1.000
    O55     O    0.67436   0.43262   0.83002   1.000
loop_
    _geom_bond_atom_site_label_1
    _geom_bond_atom_site_label_2
    _geom_bond_distance
    _geom_bond_site_symmetry_2
    _ccdc_geom_bond_type
    Zr16   O17       1.67257      .   S
    N3     O17       4.03363  1_655   S
    Zr16   O18       1.61275      .   S
    N14    O18       3.87209  1_554   S
    Zr16   O19       1.99688      .   S
    N8     O19       5.09526  1_554   S
    Zr16   O20       1.98267      .   S
    N11    O20       5.06203      .   S
    Zr21   O22       1.61088      .   S
    N2     O22       3.87035      .   S
    Zr21   O23       1.99092      .   S
    N11    O23       5.07935      .   S
    Zr21   O24       1.99081      .   S
    N8     O24       5.08281      .   S
    Zr21   O25       1.67684      .   S
    N15    O25       4.04391      .   S
    Zr26   O27       1.99059      .   S
    N10    O27       5.07823  1_655   S
    Zr26   O28       1.99071      .   S
    N7     O28       5.08242  1_655   S
    Zr26   O29       1.61079      .   S
    N4     O29       3.87018  1_545   S
    Zr26   O30       1.67685      .   S
    N14    O30       4.04388      .   S
    Zr31   O32       1.99713      .   S
    N9     O32       5.09603  1_554   S
    Zr31   O33       1.61280      .   S
    N13    O33       3.87223  1_544   S
    Zr31   O34       1.67255      .   S
    N2     O34       4.03355  1_655   S
    Zr31   O35       1.98254      .   S
    N1     O35       5.06191      .   S
    Zr36   O37       1.98192      .   S
    N10    O37       5.06092      .   S
    Zr36   O38       1.99739      .   S
    N7     O38       5.09624  1_554   S
    Zr36   O39       1.61302      .   S
    N15    O39       3.87262  1_544   S
    Zr36   O40       1.67232      .   S
    N5     O40       4.03311      .   S
    Zr41   O42       1.99065      .   S
    N6     O42       5.08236  1_655   S
    Zr41   O43       1.99079      .   S
    N12    O43       5.07871  1_655   S
    Zr41   O44       1.61088      .   S
    N5     O44       3.87036      .   S
    Zr41   O45       1.67677      .   S
    N13    O45       4.04376      .   S
    Zr46   O47       1.99085      .   S
    N9     O47       5.08282      .   S
    Zr46   O48       1.61078      .   S
    N3     O48       3.87016  1_545   S
    Zr46   O49       1.99086      .   S
    N1     O49       5.07901      .   S
    Zr46   O50       1.67690      .   S
    N0     O50       4.04405      .   S
    Zr51   O52       1.99670      .   S
    N6     O52       5.09475  1_554   S
    Zr51   O53       1.67252      .   S
    N4     O53       4.03352      .   S
    Zr51   O54       1.98246      .   S
    N12    O54       5.06171      .   S
    Zr51   O55       1.61276      .   S
    N0     O55       3.87209  1_554   S
