# CIF file generated by openbabel 2.4.90, see http://openbabel.sf.net
data_I
_chemical_name_common ''
_cell_length_a 18.423
_cell_length_b 18.43
_cell_length_c 18.43
_cell_angle_alpha 60.187
_cell_angle_beta 60.175
_cell_angle_gamma 60.177
_space_group_name_H-M_alt 'P 1'
_space_group_name_Hall 'P 1'
loop_
    _symmetry_equiv_pos_as_xyz
    x,y,z
loop_
    _atom_site_label
    _atom_site_type_symbol
    _atom_site_fract_x
    _atom_site_fract_y
    _atom_site_fract_z
    _atom_site_occupancy
    H0      H    0.04844   0.56803   0.04845   1.000
    H1      H    0.56820   0.04809   0.33571   1.000
    H2      H    0.04771   0.33573   0.04772   1.000
    H3      H    0.33564   0.04817   0.56807   1.000
    H4      H    0.04770   0.04773   0.33572   1.000
    H5      H    0.56820   0.33572   0.04808   1.000
    H6      H    0.04844   0.04846   0.56802   1.000
    H7      H    0.33564   0.56807   0.04817   1.000
    H8      H    0.04813   0.33572   0.56800   1.000
    H9      H    0.56814   0.04840   0.04840   1.000
    H10     H    0.04814   0.56808   0.33570   1.000
    H11     H    0.33566   0.04776   0.04776   1.000
    H12     H    0.43187   0.95160   0.95157   1.000
    H13     H    0.95187   0.43191   0.66420   1.000
    H14     H    0.66436   0.95224   0.95221   1.000
    H15     H    0.95188   0.66427   0.43100   1.000
    H16     H    0.95231   0.95226   0.66425   1.000
    H17     H    0.66437   0.43192   0.95180   1.000
    H18     H    0.95157   0.95154   0.43195   1.000
    H19     H    0.43182   0.66427   0.95189   1.000
    H20     H    0.66437   0.95182   0.43190   1.000
    H21     H    0.95157   0.43196   0.95152   1.000
    H22     H    0.43181   0.95191   0.66426   1.000
    H23     H    0.95230   0.66426   0.95220   1.000
    C24     C    0.02683   0.53899   0.02684   1.000
    C25     C    0.53910   0.02664   0.40767   1.000
    C26     C    0.02643   0.40769   0.02644   1.000
    C27     C    0.40765   0.02668   0.53902   1.000
    C28     C    0.02646   0.02642   0.40768   1.000
    C29     C    0.53910   0.40768   0.02664   1.000
    C30     C    0.02687   0.02682   0.53898   1.000
    C31     C    0.40765   0.53903   0.02660   1.000
    C32     C    0.02663   0.40769   0.53902   1.000
    C33     C    0.53905   0.02684   0.02679   1.000
    C34     C    0.02663   0.53903   0.40767   1.000
    C35     C    0.40766   0.02649   0.02644   1.000
    C36     C    0.46096   0.97315   0.97318   1.000
    C37     C    0.97338   0.46096   0.59230   1.000
    C38     C    0.59236   0.97350   0.97353   1.000
    C39     C    0.97339   0.59231   0.46095   1.000
    C40     C    0.97355   0.97358   0.59229   1.000
    C41     C    0.59237   0.46097   0.97329   1.000
    C42     C    0.97314   0.97318   0.46099   1.000
    C43     C    0.46091   0.59231   0.97333   1.000
    C44     C    0.59237   0.97331   0.46095   1.000
    C45     C    0.97318   0.46100   0.97313   1.000
    C46     C    0.46091   0.97335   0.59230   1.000
    C47     C    0.97358   0.59230   0.97353   1.000
    C48     C    0.11093   0.38898   0.11098   1.000
    C49     C    0.05362   0.44633   0.05364   1.000
    C50     C    0.38910   0.11113   0.38906   1.000
    C51     C    0.44640   0.05367   0.44637   1.000
    C52     C    0.11094   0.11098   0.38896   1.000
    C53     C    0.05359   0.05368   0.44632   1.000
    C54     C    0.38910   0.38907   0.11110   1.000
    C55     C    0.44640   0.44638   0.05367   1.000
    C56     C    0.11109   0.38907   0.38906   1.000
    C57     C    0.05370   0.44638   0.44637   1.000
    C58     C    0.38897   0.11099   0.11096   1.000
    C59     C    0.44634   0.05361   0.05360   1.000
    C60     C    0.61104   0.88900   0.88901   1.000
    C61     C    0.55367   0.94638   0.94630   1.000
    C62     C    0.88892   0.61092   0.61091   1.000
    C63     C    0.94631   0.55361   0.55360   1.000
    C64     C    0.88907   0.88902   0.61101   1.000
    C65     C    0.94641   0.94632   0.55365   1.000
    C66     C    0.61091   0.61092   0.88886   1.000
    C67     C    0.55361   0.55361   0.94630   1.000
    C68     C    0.61091   0.88887   0.61091   1.000
    C69     C    0.55361   0.94632   0.55360   1.000
    C70     C    0.88908   0.61102   0.88899   1.000
    C71     C    0.94639   0.55366   0.94633   1.000
    O72     O    0.25000   0.25000   0.24999   1.000
    O73     O    0.75001   0.75000   0.74998   1.000
    O74     O    0.13320   0.42860   0.13318   1.000
    O75     O    0.42870   0.13333   0.30531   1.000
    O76     O    0.13284   0.30520   0.13299   1.000
    O77     O    0.30531   0.13324   0.42864   1.000
    O78     O    0.13283   0.13302   0.30518   1.000
    O79     O    0.42870   0.30532   0.13331   1.000
    O80     O    0.13320   0.13318   0.42850   1.000
    O81     O    0.30530   0.42864   0.13324   1.000
    O82     O    0.13326   0.30532   0.42863   1.000
    O83     O    0.42863   0.13320   0.13300   1.000
    O84     O    0.13326   0.42864   0.30531   1.000
    O85     O    0.30515   0.13296   0.13296   1.000
    O86     O    0.57139   0.86680   0.86677   1.000
    O87     O    0.86675   0.57135   0.69466   1.000
    O88     O    0.69486   0.86703   0.86701   1.000
    O89     O    0.86675   0.69467   0.57134   1.000
    O90     O    0.86718   0.86698   0.69479   1.000
    O91     O    0.69471   0.57135   0.86674   1.000
    O92     O    0.86681   0.86680   0.57139   1.000
    O93     O    0.57131   0.69467   0.86666   1.000
    O94     O    0.69471   0.86675   0.57133   1.000
    O95     O    0.86681   0.57140   0.86679   1.000
    O96     O    0.57131   0.86667   0.69466   1.000
    O97     O    0.86717   0.69480   0.86698   1.000
loop_
    _geom_bond_atom_site_label_1
    _geom_bond_atom_site_label_2
    _geom_bond_distance
    _geom_bond_site_symmetry_2
    _ccdc_geom_bond_type
    C26    H2        1.08858      .   S
    C26    C49       1.40329      .   S
    C26    C45       1.39044  1_454   S
    C35    H11       1.08859      .   S
    C35    C59       1.40229      .   S
    C35    C36       1.39088  1_544   S
    C31    H7        1.08859      .   S
    C31    C55       1.40317      .   S
    C31    C43       1.39022  1_554   S
    C29    H5        1.08857      .   S
    C29    C55       1.40318      .   S
    C29    C41       1.39024  1_554   S
    C33    H9        1.08861      .   S
    C33    C59       1.40344      .   S
    C33    C38       1.39089  1_544   S
    C24    H0        1.08864      .   S
    C24    C49       1.40334      .   S
    C24    C47       1.39045  1_454   S
    C59    C58       1.49713      .   S
    C49    C48       1.49592      .   S
    C55    C54       1.49541      .   S
    C58    O85       1.27737      .   S
    C58    O83       1.27435      .   S
    C48    O76       1.27739      .   S
    C48    O74       1.27710      .   S
    C54    O81       1.27711      .   S
    C54    O79       1.27714      .   S
    O78    C52       1.27737      .   S
    O84    C56       1.27710      .   S
    O75    C50       1.27708      .   S
    H10    C34       1.08862      .   S
    H1     C25       1.08849      .   S
    H4     C28       1.08855      .   S
    C52    O80       1.27574      .   S
    C52    C53       1.49592      .   S
    C56    O82       1.27710      .   S
    C56    C57       1.49563      .   S
    C50    O77       1.27713      .   S
    C50    C51       1.49547      .   S
    C25    C51       1.40318      .   S
    C25    C44       1.39023  1_545   S
    C34    C57       1.40314      .   S
    C34    C39       1.39038  1_455   S
    C28    C53       1.40319      .   S
    C28    C42       1.39033  1_445   S
    H15    C39       1.08981      .   S
    H20    C44       1.08858      .   S
    H18    C42       1.08862      .   S
    C53    C30       1.40330      .   S
    C57    C32       1.40316      .   S
    C51    C27       1.40317      .   S
    C39    C63       1.40316      .   S
    C44    C69       1.40317      .   S
    C42    C65       1.40330      .   S
    C30    H6        1.08859      .   S
    C30    C40       1.39033  1_445   S
    C27    H3        1.08858      .   S
    C27    C46       1.39023  1_545   S
    C32    H8        1.08848      .   S
    C32    C37       1.39036  1_455   S
    C69    C46       1.40318      .   S
    C69    C68       1.49547      .   S
    C63    C37       1.40314      .   S
    C63    C62       1.49563      .   S
    C65    C40       1.40321      .   S
    C65    C64       1.49592      .   S
    O94    C68       1.27713      .   S
    O89    C62       1.27711      .   S
    O92    C64       1.27704      .   S
    C40    H16       1.08855      .   S
    C37    H13       1.08760      .   S
    C46    H22       1.08849      .   S
    C62    O87       1.27710      .   S
    C68    O96       1.27708      .   S
    C64    O90       1.27737      .   S
    O93    C66       1.27712      .   S
    O91    C66       1.27711      .   S
    O86    C60       1.27718      .   S
    O95    C70       1.27710      .   S
    O97    C70       1.27739      .   S
    O88    C60       1.27735      .   S
    C66    C67       1.49543      .   S
    C70    C71       1.49592      .   S
    C60    C61       1.49623      .   S
    C67    C41       1.40317      .   S
    C67    C43       1.40318      .   S
    C61    C36       1.40334      .   S
    C61    C38       1.40329      .   S
    C71    C45       1.40334      .   S
    C71    C47       1.40326      .   S
    H21    C45       1.08866      .   S
    H12    C36       1.08861      .   S
    H17    C41       1.08858      .   S
    H19    C43       1.08857      .   S
    H23    C47       1.08853      .   S
    H14    C38       1.08859      .   S
