# CIF file generated by openbabel 2.4.90, see http://openbabel.sf.net
data_I
_chemical_name_common ''
_cell_length_a 18.423
_cell_length_b 18.43
_cell_length_c 18.43
_cell_angle_alpha 60.187
_cell_angle_beta 60.175
_cell_angle_gamma 60.177
_space_group_name_H-M_alt 'P 1'
_space_group_name_Hall 'P 1'
loop_
    _symmetry_equiv_pos_as_xyz
    x,y,z
loop_
    _atom_site_label
    _atom_site_type_symbol
    _atom_site_fract_x
    _atom_site_fract_y
    _atom_site_fract_z
    _atom_site_occupancy
    Zr0     Zr   0.20668   0.38041   0.20668   1.000
    Zr1     Zr   0.38050   0.20670   0.20669   1.000
    Zr2     Zr   0.20625   0.20637   0.20636   1.000
    Zr3     Zr   0.20668   0.20669   0.38041   1.000
    Zr4     Zr   0.61952   0.79330   0.79328   1.000
    Zr5     Zr   0.79334   0.61958   0.79329   1.000
    Zr6     Zr   0.79376   0.79362   0.79360   1.000
    Zr7     Zr   0.79333   0.79330   0.61956   1.000
    N8      N    0.50001   1.00000   0.99997   1.000
    O9      O    0.37785   0.08483   0.08481   1.000
    O10     O    0.54773   0.91502   0.91500   1.000
    O11     O    0.45228   0.08497   0.08491   1.000
    O12     O    0.62216   0.91516   0.91514   1.000
    N13     N    0.00001   0.50000   0.99998   1.000
    O14     O    0.91504   0.54774   0.91501   1.000
    O15     O    0.91524   0.62210   0.91514   1.000
    O16     O    0.08497   0.45225   0.08496   1.000
    O17     O    0.08478   0.37789   0.08483   1.000
    N18     N    0.50001   1.00000   0.49999   1.000
    O19     O    0.54771   0.91499   0.62198   1.000
    O20     O    0.62201   0.91501   0.54772   1.000
    O21     O    0.37800   0.08498   0.45226   1.000
    O22     O    0.45230   0.08500   0.37799   1.000
    N23     N    0.00001   0.50000   0.49992   1.000
    O24     O    0.91502   0.54773   0.62195   1.000
    O25     O    0.08499   0.37800   0.45222   1.000
    O26     O    0.91502   0.62199   0.54769   1.000
    O27     O    0.08499   0.45226   0.37796   1.000
    N28     N    0.50001   0.50000   0.99998   1.000
    O29     O    0.62201   0.54773   0.91500   1.000
    O30     O    0.37800   0.45226   0.08497   1.000
    O31     O    0.54771   0.62199   0.91497   1.000
    O32     O    0.45230   0.37800   0.08499   1.000
    N33     N    0.00001   1.00000   0.49998   1.000
    O34     O    0.91504   0.91502   0.54773   1.000
    O35     O    0.08477   0.08485   0.37788   1.000
    O36     O    0.08497   0.08497   0.45222   1.000
    O37     O    0.91524   0.91515   0.62209   1.000
    N38     N    0.75001   0.75000   0.74998   1.000
    O39     O    0.76084   0.76082   0.71737   1.000
    O40     O    0.76084   0.71739   0.76081   1.000
    O41     O    0.71739   0.76082   0.76081   1.000
    O42     O    0.76095   0.76090   0.76088   1.000
    N43     N    0.25000   0.25000   0.24999   1.000
    O44     O    0.23917   0.23917   0.28259   1.000
    O45     O    0.28262   0.23917   0.23916   1.000
    O46     O    0.23917   0.28260   0.23916   1.000
    O47     O    0.23906   0.23909   0.23908   1.000
loop_
    _geom_bond_atom_site_label_1
    _geom_bond_atom_site_label_2
    _geom_bond_distance
    _geom_bond_site_symmetry_2
    _ccdc_geom_bond_type
    N8     O9        2.32058  1_566   S
    Zr2    O9        3.30630      .   S
    N8     O10       2.31896      .   S
    Zr4    O10       3.30389      .   S
    N8     O11       2.31846  1_566   S
    Zr1    O11       3.30492      .   S
    N8     O12       2.32044      .   S
    Zr6    O12       3.30620      .   S
    N13    O14       2.31842  1_455   S
    Zr5    O14       3.30302      .   S
    N13    O15       2.32010  1_455   S
    Zr6    O15       3.30565      .   S
    N13    O16       2.31847  1_556   S
    Zr0    O16       3.30306      .   S
    N13    O17       2.32012  1_556   S
    Zr2    O17       3.30561      .   S
    N18    O19       2.31847      .   S
    Zr4    O19       3.30305      .   S
    N18    O20       2.31828      .   S
    Zr7    O20       3.30279      .   S
    N18    O21       2.31828  1_565   S
    Zr3    O21       3.30279      .   S
    N18    O22       2.31847  1_565   S
    Zr1    O22       3.30305      .   S
    N23    O24       2.31905  1_455   S
    Zr5    O24       3.30372      .   S
    N23    O25       2.31823      .   S
    Zr3    O25       3.30289      .   S
    N23    O26       2.31886  1_455   S
    Zr7    O26       3.30353      .   S
    N23    O27       2.31807      .   S
    Zr0    O27       3.30274      .   S
    N28    O29       2.31827      .   S
    Zr5    O29       3.30276      .   S
    N28    O30       2.31827  1_556   S
    Zr0    O30       3.30277      .   S
    N28    O31       2.31847      .   S
    Zr4    O31       3.30304      .   S
    N28    O32       2.31847  1_556   S
    Zr1    O32       3.30304      .   S
    N33    O34       2.31838  1_455   S
    Zr7    O34       3.30305      .   S
    N33    O35       2.32003  1_565   S
    Zr2    O35       3.30546      .   S
    N33    O36       2.31830  1_565   S
    Zr3    O36       3.30317      .   S
    N33    O37       2.32004  1_455   S
    Zr6    O37       3.30545      .   S
    N38    O39       0.49176      .   S
    Zr7    O39       1.47529      .   S
    N38    O40       0.49175      .   S
    Zr5    O40       1.47526      .   S
    N38    O41       0.49181      .   S
    Zr4    O41       1.47543      .   S
    N38    O42       0.49206      .   S
    Zr6    O42       1.47619      .   S
    N43    O44       0.49176      .   S
    Zr3    O44       1.47529      .   S
    N43    O45       0.49181      .   S
    Zr1    O45       1.47543      .   S
    N43    O46       0.49175      .   S
    Zr0    O46       1.47525      .   S
    N43    O47       0.49211      .   S
    Zr2    O47       1.47632      .   S
