# CIF file generated by openbabel 2.4.90, see http://openbabel.sf.net
data_I
_chemical_name_common ''
_cell_length_a 19.673
_cell_length_b 24.252
_cell_length_c 15.389
_cell_angle_alpha 96.079
_cell_angle_beta 98.001
_cell_angle_gamma 113.54
_space_group_name_H-M_alt 'P 1'
_space_group_name_Hall 'P 1'
loop_
    _symmetry_equiv_pos_as_xyz
    x,y,z
loop_
    _atom_site_label
    _atom_site_type_symbol
    _atom_site_fract_x
    _atom_site_fract_y
    _atom_site_fract_z
    _atom_site_occupancy
    N0      N    0.30214   0.98343   0.62279   1.000
    N1      N    0.22235   0.96508   0.84354   1.000
    N2      N    0.72218   0.46507   0.84353   1.000
    N3      N    0.87965   0.74353   0.80728   1.000
    N4      N    0.37933   0.24353   0.80720   1.000
    N5      N    0.37963   0.74353   0.80728   1.000
    N6      N    0.87934   0.24353   0.80720   1.000
    N7      N    0.80215   0.98343   0.62279   1.000
    N8      N    0.30207   0.48366   0.62287   1.000
    N9      N    0.72237   0.96508   0.84355   1.000
    N10     N    0.77770   0.03490   0.15640   1.000
    N11     N    0.27769   0.03490   0.15640   1.000
    N12     N    0.77789   0.53491   0.15641   1.000
    N13     N    0.27787   0.53491   0.15640   1.000
    N14     N    0.36736   0.26789   0.13579   1.000
    N15     N    0.86737   0.26789   0.13577   1.000
    N16     N    0.86768   0.76794   0.13585   1.000
    N17     N    0.80208   0.48366   0.62287   1.000
    N18     N    0.13268   0.73209   0.86416   1.000
    N19     N    0.63239   0.23204   0.86411   1.000
    N20     N    0.57809   0.21193   0.54704   1.000
    N21     N    0.57860   0.71167   0.54716   1.000
    N22     N    0.13238   0.23204   0.86411   1.000
    N23     N    0.12071   0.75645   0.19276   1.000
    N24     N    0.62042   0.25645   0.19268   1.000
    N25     N    0.19790   0.01654   0.37715   1.000
    N26     N    0.19797   0.51633   0.37702   1.000
    N27     N    0.62072   0.75645   0.19276   1.000
    N28     N    0.42147   0.28830   0.45279   1.000
    N29     N    0.42198   0.78805   0.45292   1.000
    N30     N    0.92148   0.28830   0.45279   1.000
    N31     N    0.92198   0.78805   0.45291   1.000
    N32     N    0.69792   0.01654   0.37712   1.000
    N33     N    0.69798   0.51633   0.37707   1.000
    N34     N    0.22217   0.46507   0.84351   1.000
    N35     N    0.12041   0.25645   0.19268   1.000
    N36     N    0.36766   0.76794   0.13584   1.000
    N37     N    0.07808   0.21193   0.54704   1.000
    N38     N    0.07859   0.71167   0.54717   1.000
    N39     N    0.63269   0.73209   0.86416   1.000
    Zr40    Zr   0.74977   0.25021   0.49995   1.000
    O41     O    0.76651   0.31809   0.54274   1.000
    O42     O    0.73316   0.18224   0.45723   1.000
    O43     O    0.80605   0.26263   0.48568   1.000
    O44     O    0.69350   0.23775   0.51419   1.000
    Zr45    Zr   0.75031   0.74975   0.50001   1.000
    O46     O    0.80658   0.76222   0.48576   1.000
    O47     O    0.69402   0.73734   0.51428   1.000
    O48     O    0.76691   0.81773   0.54272   1.000
    O49     O    0.73356   0.68188   0.45721   1.000
    Zr50    Zr   0.49572   0.28795   0.29251   1.000
    O51     O    0.53562   0.27663   0.25969   1.000
    O52     O    0.47121   0.28786   0.34646   1.000
    O53     O    0.55300   0.35658   0.31409   1.000
    O54     O    0.45287   0.28130   0.23992   1.000
    Zr55    Zr   0.77284   0.19153   0.93327   1.000
    O56     O    0.80279   0.21607   0.99967   1.000
    O57     O    0.80847   0.20929   0.89126   1.000
    O58     O    0.75386   0.12377   0.90577   1.000
    O59     O    0.72673   0.20463   0.91167   1.000
    Zr60    Zr   0.22693   0.30838   0.06664   1.000
    O61     O    0.19129   0.29064   0.10863   1.000
    O62     O    0.24605   0.37616   0.09416   1.000
    O63     O    0.19697   0.28385   0.00023   1.000
    O64     O    0.27303   0.29528   0.08823   1.000
    Zr65    Zr   0.50400   0.21198   0.70744   1.000
    O66     O    0.46411   0.22332   0.74023   1.000
    O67     O    0.54687   0.21864   0.76001   1.000
    O68     O    0.52845   0.21217   0.65345   1.000
    O69     O    0.44685   0.14331   0.68584   1.000
    Zr70    Zr   0.55706   0.65812   0.33001   1.000
    O71     O    0.47430   0.61993   0.28002   1.000
    O72     O    0.56469   0.67560   0.40088   1.000
    O73     O    0.59868   0.61571   0.34127   1.000
    O74     O    0.57795   0.69050   0.28583   1.000
    Zr75    Zr   0.99606   0.78800   0.29252   1.000
    O76     O    0.03594   0.77666   0.25973   1.000
    O77     O    0.95320   0.78134   0.23995   1.000
    O78     O    0.05320   0.85667   0.31411   1.000
    O79     O    0.97162   0.78781   0.34651   1.000
    Zr80    Zr   0.44299   0.34186   0.66994   1.000
    O81     O    0.43536   0.32437   0.59906   1.000
    O82     O    0.52575   0.38005   0.71993   1.000
    O83     O    0.40137   0.38427   0.65868   1.000
    O84     O    0.42210   0.30948   0.71412   1.000
    Zr85    Zr   0.99573   0.28795   0.29251   1.000
    O86     O    0.95288   0.28130   0.23992   1.000
    O87     O    0.05300   0.35658   0.31408   1.000
    O88     O    0.97122   0.28786   0.34646   1.000
    O89     O    0.03562   0.27663   0.25969   1.000
    Zr90    Zr   0.05681   0.15823   0.33004   1.000
    O91     O    0.97407   0.12001   0.28005   1.000
    O92     O    0.06435   0.17577   0.40086   1.000
    O93     O    0.09847   0.11585   0.34132   1.000
    O94     O    0.07768   0.19057   0.28582   1.000
    Zr95    Zr   0.27282   0.19153   0.93327   1.000
    O96     O    0.30846   0.20929   0.89126   1.000
    O97     O    0.30278   0.21607   0.99968   1.000
    O98     O    0.25384   0.12377   0.90576   1.000
    O99     O    0.22672   0.20463   0.91167   1.000
    Zr100   Zr   0.05705   0.65812   0.33001   1.000
    O101    O    0.97430   0.61993   0.28001   1.000
    O102    O    0.07794   0.69050   0.28583   1.000
    O103    O    0.09867   0.61571   0.34126   1.000
    O104    O    0.06468   0.67560   0.40089   1.000
    Zr105   Zr   0.00399   0.21198   0.70744   1.000
    O106    O    0.96411   0.22332   0.74023   1.000
    O107    O    0.04686   0.21864   0.76001   1.000
    O108    O    0.02844   0.21217   0.65345   1.000
    O109    O    0.94685   0.14331   0.68584   1.000
    Zr110   Zr   0.44323   0.84175   0.66992   1.000
    O111    O    0.43570   0.82421   0.59910   1.000
    O112    O    0.52598   0.87996   0.71991   1.000
    O113    O    0.42237   0.80940   0.71414   1.000
    O114    O    0.40157   0.88413   0.65863   1.000
    Zr115   Zr   0.27311   0.69160   0.93332   1.000
    O116    O    0.30875   0.70933   0.89133   1.000
    O117    O    0.22701   0.70470   0.91172   1.000
    O118    O    0.30307   0.71613   0.99972   1.000
    O119    O    0.25399   0.62382   0.90579   1.000
    Zr120   Zr   0.25030   0.74975   0.50001   1.000
    O121    O    0.23355   0.68188   0.45720   1.000
    O122    O    0.19402   0.73734   0.51428   1.000
    O123    O    0.30657   0.76222   0.48577   1.000
    O124    O    0.26690   0.81773   0.54271   1.000
    Zr125   Zr   0.94300   0.34186   0.66994   1.000
    O126    O    0.93537   0.32437   0.59906   1.000
    O127    O    0.02575   0.38005   0.71992   1.000
    O128    O    0.92211   0.30947   0.71412   1.000
    O129    O    0.90138   0.38427   0.65868   1.000
    Zr130   Zr   0.55682   0.15823   0.33004   1.000
    O131    O    0.56436   0.17577   0.40087   1.000
    O132    O    0.59848   0.11585   0.34131   1.000
    O133    O    0.47407   0.12001   0.28005   1.000
    O134    O    0.57768   0.19057   0.28582   1.000
    Zr135   Zr   0.24976   0.25022   0.49995   1.000
    O136    O    0.19349   0.23775   0.51419   1.000
    O137    O    0.26650   0.31809   0.54274   1.000
    O138    O    0.23315   0.18224   0.45724   1.000
    O139    O    0.30604   0.26263   0.48568   1.000
    Zr140   Zr   0.50434   0.71203   0.70745   1.000
    O141    O    0.46444   0.72335   0.74027   1.000
    O142    O    0.52885   0.71211   0.65350   1.000
    O143    O    0.44705   0.64340   0.68586   1.000
    O144    O    0.54719   0.71868   0.76004   1.000
    Zr145   Zr   0.94324   0.84175   0.66992   1.000
    O146    O    0.92238   0.80940   0.71414   1.000
    O147    O    0.02598   0.87996   0.71990   1.000
    O148    O    0.93571   0.82420   0.59909   1.000
    O149    O    0.90158   0.88413   0.65863   1.000
    Zr150   Zr   0.72723   0.80845   0.06669   1.000
    O151    O    0.69727   0.78391   0.00028   1.000
    O152    O    0.77333   0.79535   0.08829   1.000
    O153    O    0.74621   0.87621   0.09419   1.000
    O154    O    0.69160   0.79069   0.10870   1.000
    Zr155   Zr   0.77312   0.69160   0.93332   1.000
    O156    O    0.80876   0.70933   0.89133   1.000
    O157    O    0.75400   0.62382   0.90579   1.000
    O158    O    0.80308   0.71613   0.99973   1.000
    O159    O    0.72702   0.70470   0.91172   1.000
    Zr160   Zr   0.49606   0.78800   0.29252   1.000
    O161    O    0.47161   0.78781   0.34651   1.000
    O162    O    0.45319   0.78134   0.23995   1.000
    O163    O    0.53594   0.77666   0.25973   1.000
    O164    O    0.55320   0.85667   0.31411   1.000
    Zr165   Zr   0.00433   0.71203   0.70740   1.000
    O166    O    0.04718   0.71868   0.76000   1.000
    O167    O    0.94705   0.64340   0.68584   1.000
    O168    O    0.02884   0.71211   0.65347   1.000
    O169    O    0.96444   0.72335   0.74024   1.000
    Zr170   Zr   0.72694   0.30838   0.06664   1.000
    O171    O    0.74606   0.37616   0.09416   1.000
    O172    O    0.77304   0.29528   0.08823   1.000
    O173    O    0.69130   0.29064   0.10863   1.000
    O174    O    0.69698   0.28385   0.00023   1.000
    Zr175   Zr   0.22722   0.80845   0.06669   1.000
    O176    O    0.24620   0.87621   0.09419   1.000
    O177    O    0.27332   0.79535   0.08828   1.000
    O178    O    0.19158   0.79069   0.10870   1.000
    O179    O    0.19726   0.78391   0.00028   1.000
loop_
    _geom_bond_atom_site_label_1
    _geom_bond_atom_site_label_2
    _geom_bond_distance
    _geom_bond_site_symmetry_2
    _ccdc_geom_bond_type
    Zr40   O41       1.59029      .   S
    N17    O41       3.82086      .   S
    Zr40   O42       1.59270      .   S
    N32    O42       3.82572      .   S
    Zr40   O43       1.08637      .   S
    N30    O43       2.24889      .   S
    Zr40   O44       1.08591      .   S
    N20    O44       2.24803      .   S
    Zr45   O46       1.08595      .   S
    N31    O46       2.24796      .   S
    Zr45   O47       1.08639      .   S
    N21    O47       2.24891      .   S
    Zr45   O48       1.59276      .   S
    N7     O48       3.82583      .   S
    Zr45   O49       1.59019      .   S
    N33    O49       3.82067      .   S
    Zr50   O51       1.09532      .   S
    N24    O51       2.26067      .   S
    Zr50   O52       1.01629      .   S
    N28    O52       2.02126      .   S
    Zr50   O53       1.55903      .   S
    N33    O53       3.70040      .   S
    Zr50   O54       1.03219      .   S
    N14    O54       2.05079      .   S
    Zr55   O56       1.08124      .   S
    N15    O56       2.23754  1_554   S
    Zr55   O57       1.01918      .   S
    N6     O57       2.02780      .   S
    Zr55   O58       1.52906      .   S
    N9     O58       3.64153  1_565   S
    Zr55   O59       1.09666      .   S
    N19    O59       2.26549      .   S
    Zr60   O61       1.01900      .   S
    N35    O61       2.02747      .   S
    Zr60   O62       1.52893      .   S
    N13    O62       3.64111      .   S
    Zr60   O63       1.08132      .   S
    N22    O63       2.23776  1_556   S
    Zr60   O64       1.09645      .   S
    N14    O64       2.26512      .   S
    Zr65   O66       1.09510      .   S
    N4     O66       2.26030      .   S
    Zr65   O67       1.03215      .   S
    N19    O67       2.05072      .   S
    Zr65   O68       1.01593      .   S
    N20    O68       2.02058      .   S
    Zr65   O69       1.55918      .   S
    N0     O69       3.70089  1_565   S
    Zr70   O71       1.54803      .   S
    N13    O71       3.68261      .   S
    Zr70   O72       1.09433      .   S
    N21    O72       2.26445      .   S
    Zr70   O73       1.55860      .   S
    N33    O73       3.69750      .   S
    Zr70   O74       1.08675      .   S
    N27    O74       2.25010      .   S
    Zr75   O76       1.09499  1_655   S
    N23    O76       2.26009      .   S
    Zr75   O77       1.03216      .   S
    N16    O77       2.05073      .   S
    Zr75   O78       1.55914  1_655   S
    N25    O78       3.70081  1_545   S
    Zr75   O79       1.01583      .   S
    N31    O79       2.02036      .   S
    Zr80   O81       1.09444      .   S
    N28    O81       2.26439      .   S
    Zr80   O82       1.54803      .   S
    N2     O82       3.68257      .   S
    Zr80   O83       1.55862      .   S
    N8     O83       3.69755      .   S
    Zr80   O84       1.08677      .   S
    N4     O84       2.25013      .   S
    Zr85   O86       1.03220      .   S
    N15    O86       2.05085      .   S
    Zr85   O87       1.55899  1_655   S
    N26    O87       3.70029      .   S
    Zr85   O88       1.01628      .   S
    N30    O88       2.02125      .   S
    Zr85   O89       1.09520  1_655   S
    N35    O89       2.26046      .   S
    Zr90   O91       1.54781  1_455   S
    N10    O91       3.68212      .   S
    Zr90   O92       1.09421      .   S
    N37    O92       2.26401      .   S
    Zr90   O93       1.55866      .   S
    N25    O93       3.69780      .   S
    Zr90   O94       1.08650      .   S
    N35    O94       2.24965      .   S
    Zr95   O96       1.01918      .   S
    N4     O96       2.02781      .   S
    Zr95   O97       1.08128      .   S
    N14    O97       2.23766  1_554   S
    Zr95   O98       1.52907      .   S
    N1     O98       3.64152  1_565   S
    Zr95   O99       1.09666      .   S
    N22    O99       2.26549      .   S
    Zr100  O101      1.54797  1_455   S
    N12    O101      3.68234      .   S
    Zr100  O102      1.08674      .   S
    N23    O102      2.25008      .   S
    Zr100  O103      1.55858      .   S
    N26    O103      3.69741      .   S
    Zr100  O104      1.09444      .   S
    N38    O104      2.26436      .   S
    Zr105  O106      1.09498  1_455   S
    N6     O106      2.26009      .   S
    Zr105  O107      1.03214      .   S
    N22    O107      2.05069      .   S
    Zr105  O108      1.01593      .   S
    N37    O108      2.02062      .   S
    Zr105  O109      1.55914  1_455   S
    N7     O109      3.70080  1_565   S
    Zr110  O111      1.09424      .   S
    N29    O111      2.26407      .   S
    Zr110  O112      1.54790      .   S
    N9     O112      3.68230      .   S
    Zr110  O113      1.08649      .   S
    N5     O113      2.24964      .   S
    Zr110  O114      1.55871      .   S
    N0     O114      3.69791      .   S
    Zr115  O116      1.01902      .   S
    N5     O116      2.02752      .   S
    Zr115  O117      1.09644      .   S
    N18    O117      2.26511      .   S
    Zr115  O118      1.08122      .   S
    N36    O118      2.23769  1_554   S
    Zr115  O119      1.52895      .   S
    N34    O119      3.64118      .   S
    Zr120  O121      1.59021      .   S
    N26    O121      3.82073      .   S
    Zr120  O122      1.08638      .   S
    N38    O122      2.24891      .   S
    Zr120  O123      1.08588      .   S
    N29    O123      2.24797      .   S
    Zr120  O124      1.59277      .   S
    N0     O124      3.82586      .   S
    Zr125  O126      1.09444      .   S
    N30    O126      2.26439      .   S
    Zr125  O127      1.54791  1_655   S
    N34    O127      3.68234      .   S
    Zr125  O128      1.08676      .   S
    N6     O128      2.25009      .   S
    Zr125  O129      1.55860      .   S
    N17    O129      3.69750      .   S
    Zr130  O131      1.09423      .   S
    N20    O131      2.26407      .   S
    Zr130  O132      1.55865      .   S
    N32    O132      3.69781      .   S
    Zr130  O133      1.54792      .   S
    N11    O133      3.68231      .   S
    Zr130  O134      1.08652      .   S
    N24    O134      2.24968      .   S
    Zr135  O136      1.08589      .   S
    N37    O136      2.24796      .   S
    Zr135  O137      1.59028      .   S
    N8     O137      3.82085      .   S
    Zr135  O138      1.59267      .   S
    N25    O138      3.82566      .   S
    Zr135  O139      1.08639      .   S
    N28    O139      2.24893      .   S
    Zr140  O141      1.09533      .   S
    N5     O141      2.26069      .   S
    Zr140  O142      1.01635      .   S
    N21    O142      2.02141      .   S
    Zr140  O143      1.55901      .   S
    N8     O143      3.70037      .   S
    Zr140  O144      1.03216      .   S
    N39    O144      2.05070      .   S
    Zr145  O146      1.08648      .   S
    N3     O146      2.24962      .   S
    Zr145  O147      1.54778  1_655   S
    N1     O147      3.68215      .   S
    Zr145  O148      1.09429      .   S
    N31    O148      2.26424      .   S
    Zr145  O149      1.55868      .   S
    N7     O149      3.69786      .   S
    Zr150  O151      1.08131      .   S
    N39    O151      2.23775  1_556   S
    Zr150  O152      1.09667      .   S
    N16    O152      2.26550      .   S
    Zr150  O153      1.52904      .   S
    N10    O153      3.64148  1_545   S
    Zr150  O154      1.01918      .   S
    N27    O154      2.02780      .   S
    Zr155  O156      1.01902      .   S
    N3     O156      2.02752      .   S
    Zr155  O157      1.52895      .   S
    N2     O157      3.64116      .   S
    Zr155  O158      1.08130      .   S
    N16    O158      2.23774  1_554   S
    Zr155  O159      1.09644      .   S
    N39    O159      2.26510      .   S
    Zr160  O161      1.01588      .   S
    N29    O161      2.02052      .   S
    Zr160  O162      1.03221      .   S
    N36    O162      2.05084      .   S
    Zr160  O163      1.09511      .   S
    N27    O163      2.26029      .   S
    Zr160  O164      1.55918      .   S
    N32    O164      3.70088  1_545   S
    Zr165  O166      1.03232      .   S
    N18    O166      2.05097      .   S
    Zr165  O167      1.55898  1_455   S
    N17    O167      3.70027      .   S
    Zr165  O168      1.01609      .   S
    N38    O168      2.02096      .   S
    Zr165  O169      1.09536  1_455   S
    N3     O169      2.26074      .   S
    Zr170  O171      1.52893      .   S
    N12    O171      3.64112      .   S
    Zr170  O172      1.09645      .   S
    N15    O172      2.26509      .   S
    Zr170  O173      1.01900      .   S
    N24    O173      2.02748      .   S
    Zr170  O174      1.08132      .   S
    N19    O174      2.23777  1_556   S
    Zr175  O176      1.52905      .   S
    N11    O176      3.64149  1_545   S
    Zr175  O177      1.09664      .   S
    N36    O177      2.26549      .   S
    Zr175  O178      1.01918      .   S
    N23    O178      2.02778      .   S
    Zr175  O179      1.08131      .   S
    N18    O179      2.23775  1_556   S
