# CIF file generated by openbabel 2.4.90, see http://openbabel.sf.net
data_I
_chemical_name_common 'VESTA_phase_1'
_cell_length_a 18.626
_cell_length_b 14.536
_cell_length_c 27.649
_cell_angle_alpha 89.935
_cell_angle_beta 89.867
_cell_angle_gamma 92.543
_space_group_name_H-M_alt 'P 1'
_space_group_name_Hall 'P 1'
loop_
    _symmetry_equiv_pos_as_xyz
    x,y,z
loop_
    _atom_site_label
    _atom_site_type_symbol
    _atom_site_fract_x
    _atom_site_fract_y
    _atom_site_fract_z
    _atom_site_occupancy
    Zn0     Zn   0.34941   0.12076   0.33368   1.000
    Zn1     Zn   0.84940   0.12076   0.33368   1.000
    Zn2     Zn   0.49675   0.10572   0.37892   1.000
    Zn3     Zn   0.99674   0.10572   0.37892   1.000
    Zn4     Zn   0.15067   0.37931   0.83348   1.000
    Zn5     Zn   0.65067   0.37931   0.83348   1.000
    Zn6     Zn   0.00333   0.39409   0.87905   1.000
    Zn7     Zn   0.50332   0.39409   0.87905   1.000
    Zn8     Zn   0.15058   0.87922   0.66630   1.000
    Zn9     Zn   0.65057   0.87922   0.66630   1.000
    Zn10    Zn   0.00324   0.89426   0.62107   1.000
    Zn11    Zn   0.50323   0.89426   0.62107   1.000
    Zn12    Zn   0.34931   0.62068   0.16651   1.000
    Zn13    Zn   0.84931   0.62068   0.16651   1.000
    Zn14    Zn   0.49666   0.60589   0.12093   1.000
    Zn15    Zn   0.99665   0.60589   0.12093   1.000
    H16     H    0.05532   0.33059   0.36578   1.000
    H17     H    0.55531   0.33059   0.36578   1.000
    H18     H    0.08968   0.55561   0.26493   1.000
    H19     H    0.58967   0.55561   0.26493   1.000
    H20     H    0.39077   0.39156   0.26270   1.000
    H21     H    0.89076   0.39156   0.26270   1.000
    H22     H    0.17361   0.35578   0.37292   1.000
    H23     H    0.67360   0.35578   0.37292   1.000
    H24     H    0.12456   0.43384   0.40855   1.000
    H25     H    0.62455   0.43384   0.40855   1.000
    H26     H    0.30485   0.39017   0.35640   1.000
    H27     H    0.80484   0.39016   0.35642   1.000
    H28     H    0.41788   0.46351   0.38758   1.000
    H29     H    0.91787   0.46350   0.38758   1.000
    H30     H    0.29591   0.64355   0.47632   1.000
    H31     H    0.79590   0.64357   0.47631   1.000
    H32     H    0.18334   0.56594   0.44730   1.000
    H33     H    0.68333   0.56595   0.44736   1.000
    H34     H    0.99225   0.59028   0.38518   1.000
    H35     H    0.49224   0.59030   0.38518   1.000
    H36     H    0.10403   0.66640   0.41553   1.000
    H37     H    0.60402   0.66641   0.41550   1.000
    H38     H    0.00327   0.70827   0.55348   1.000
    H39     H    0.50326   0.70825   0.55348   1.000
    H40     H    0.39087   0.63427   0.52301   1.000
    H41     H    0.89086   0.63428   0.52301   1.000
    H42     H    0.12231   0.76408   0.54247   1.000
    H43     H    0.62230   0.76408   0.54247   1.000
    H44     H    0.17215   0.68206   0.51015   1.000
    H45     H    0.67214   0.68206   0.51015   1.000
    H46     H    0.21119   0.92472   0.41579   1.000
    H47     H    0.71118   0.92472   0.41579   1.000
    H48     H    0.41331   0.96586   0.49074   1.000
    H49     H    0.91331   0.96587   0.49074   1.000
    H50     H    0.25093   0.77788   0.54856   1.000
    H51     H    0.75092   0.77788   0.54856   1.000
    H52     H    0.44546   0.16902   0.86634   1.000
    H53     H    0.94546   0.16902   0.86634   1.000
    H54     H    0.41067   0.94439   0.76564   1.000
    H55     H    0.91066   0.94438   0.76565   1.000
    H56     H    0.10956   0.10856   0.76243   1.000
    H57     H    0.60956   0.10856   0.76243   1.000
    H58     H    0.32741   0.14450   0.87367   1.000
    H59     H    0.82740   0.14450   0.87367   1.000
    H60     H    0.37591   0.06615   0.90945   1.000
    H61     H    0.87590   0.06616   0.90945   1.000
    H62     H    0.19617   0.11155   0.85759   1.000
    H63     H    0.69616   0.11155   0.85759   1.000
    H64     H    0.08267   0.03821   0.88851   1.000
    H65     H    0.58266   0.03821   0.88851   1.000
    H66     H    0.20343   0.85599   0.97662   1.000
    H67     H    0.70342   0.85600   0.97662   1.000
    H68     H    0.31643   0.93375   0.94802   1.000
    H69     H    0.81642   0.93375   0.94803   1.000
    H70     H    0.50799   0.91162   0.88558   1.000
    H71     H    0.00000   0.91162   0.88558   1.000
    H72     H    0.39591   0.83515   0.91565   1.000
    H73     H    0.89590   0.83516   0.91560   1.000
    H74     H    0.49565   0.79053   0.05343   1.000
    H75     H    0.99564   0.79052   0.05343   1.000
    H76     H    0.10836   0.86456   0.02318   1.000
    H77     H    0.60835   0.86457   0.02318   1.000
    H78     H    0.37660   0.73582   0.04244   1.000
    H79     H    0.87659   0.73583   0.04244   1.000
    H80     H    0.32693   0.81768   0.00990   1.000
    H81     H    0.82693   0.81768   0.00991   1.000
    H82     H    0.28947   0.57578   0.91534   1.000
    H83     H    0.78947   0.57578   0.91534   1.000
    H84     H    0.08603   0.53449   0.98929   1.000
    H85     H    0.58602   0.53449   0.98929   1.000
    H86     H    0.24756   0.72189   0.04797   1.000
    H87     H    0.74755   0.72189   0.04797   1.000
    H88     H    0.44467   0.66939   0.63420   1.000
    H89     H    0.94466   0.66939   0.63420   1.000
    H90     H    0.41031   0.44438   0.73505   1.000
    H91     H    0.91030   0.44438   0.73505   1.000
    H92     H    0.10922   0.60842   0.73720   1.000
    H93     H    0.60921   0.60842   0.73720   1.000
    H94     H    0.32637   0.64420   0.62706   1.000
    H95     H    0.82637   0.64420   0.62706   1.000
    H96     H    0.37543   0.56613   0.59143   1.000
    H97     H    0.87543   0.56613   0.59143   1.000
    H98     H    0.19514   0.60980   0.64356   1.000
    H99     H    0.69513   0.60981   0.64356   1.000
    H100    H    0.08211   0.53646   0.61240   1.000
    H101    H    0.58211   0.53646   0.61240   1.000
    H102    H    0.20408   0.35640   0.52367   1.000
    H103    H    0.70407   0.35640   0.52367   1.000
    H104    H    0.31666   0.43403   0.55262   1.000
    H105    H    0.81665   0.43402   0.55262   1.000
    H106    H    0.50775   0.40967   0.61480   1.000
    H107    H    0.00000   0.40967   0.61481   1.000
    H108    H    0.39597   0.33356   0.58440   1.000
    H109    H    0.89596   0.33355   0.58440   1.000
    H110    H    0.49672   0.29171   0.44650   1.000
    H111    H    0.99671   0.29171   0.44650   1.000
    H112    H    0.10913   0.36569   0.47690   1.000
    H113    H    0.60912   0.36569   0.47697   1.000
    H114    H    0.37769   0.23588   0.45751   1.000
    H115    H    0.87768   0.23588   0.45751   1.000
    H116    H    0.32785   0.31791   0.48983   1.000
    H117    H    0.82784   0.31791   0.48980   1.000
    H118    H    0.28880   0.07525   0.58419   1.000
    H119    H    0.78879   0.07525   0.58419   1.000
    H120    H    0.08668   0.03410   0.50924   1.000
    H121    H    0.58667   0.03411   0.50920   1.000
    H122    H    0.24906   0.22210   0.45142   1.000
    H123    H    0.74906   0.22210   0.45142   1.000
    H124    H    0.05453   0.83096   0.13365   1.000
    H125    H    0.55452   0.83096   0.13365   1.000
    H126    H    0.08932   0.05560   0.23434   1.000
    H127    H    0.58931   0.05559   0.23430   1.000
    H128    H    0.39043   0.89143   0.23756   1.000
    H129    H    0.89042   0.89143   0.23756   1.000
    H130    H    0.17258   0.85547   0.12632   1.000
    H131    H    0.67258   0.85547   0.12632   1.000
    H132    H    0.12408   0.93381   0.09054   1.000
    H133    H    0.62408   0.93381   0.09054   1.000
    H134    H    0.30383   0.88843   0.14240   1.000
    H135    H    0.80382   0.88843   0.14241   1.000
    H136    H    0.41732   0.96176   0.11148   1.000
    H137    H    0.91731   0.96177   0.11148   1.000
    H138    H    0.29656   0.14397   0.02330   1.000
    H139    H    0.79655   0.14397   0.02337   1.000
    H140    H    0.18356   0.06622   0.05196   1.000
    H141    H    0.68355   0.06622   0.05197   1.000
    H142    H    0.99201   0.08835   0.11441   1.000
    H143    H    0.49200   0.08835   0.11440   1.000
    H144    H    0.10408   0.16481   0.08434   1.000
    H145    H    0.60407   0.16482   0.08434   1.000
    H146    H    0.00434   0.20946   0.94656   1.000
    H147    H    0.50433   0.20945   0.94650   1.000
    H148    H    0.39164   0.13542   0.97681   1.000
    H149    H    0.89163   0.13543   0.97681   1.000
    H150    H    0.12339   0.26415   0.95755   1.000
    H151    H    0.62339   0.26415   0.95755   1.000
    H152    H    0.17306   0.18230   0.99008   1.000
    H153    H    0.67305   0.18230   0.99007   1.000
    H154    H    0.21051   0.42420   0.08465   1.000
    H155    H    0.71050   0.42420   0.08465   1.000
    H156    H    0.41395   0.46551   0.01069   1.000
    H157    H    0.91394   0.46551   0.01069   1.000
    H158    H    0.25243   0.27809   0.95202   1.000
    H159    H    0.75242   0.27809   0.95202   1.000
    C160    C    0.46906   0.35414   0.31611   1.000
    C161    C    0.96905   0.35414   0.31611   1.000
    C162    C    0.03658   0.37481   0.33712   1.000
    C163    C    0.53658   0.37481   0.33712   1.000
    C164    C    0.07931   0.44930   0.31944   1.000
    C165    C    0.57931   0.44930   0.31944   1.000
    C166    C    0.05522   0.49998   0.27976   1.000
    C167    C    0.55521   0.49998   0.27976   1.000
    C168    C    0.48746   0.47970   0.25983   1.000
    C169    C    0.98745   0.47970   0.25983   1.000
    C170    C    0.44336   0.40740   0.27831   1.000
    C171    C    0.94335   0.40740   0.27831   1.000
    C172    C    0.42650   0.27226   0.33328   1.000
    C173    C    0.92649   0.27226   0.33328   1.000
    C174    C    0.46210   0.53353   0.21760   1.000
    C175    C    0.96209   0.53353   0.21760   1.000
    C176    C    0.16735   0.42889   0.38126   1.000
    C177    C    0.66734   0.42889   0.38126   1.000
    C178    C    0.23608   0.47384   0.39929   1.000
    C179    C    0.73607   0.47384   0.39929   1.000
    C180    C    0.30289   0.44577   0.38282   1.000
    C181    C    0.80288   0.44576   0.38283   1.000
    C182    C    0.36651   0.48767   0.40004   1.000
    C183    C    0.86650   0.48766   0.40004   1.000
    C184    C    0.36557   0.55953   0.43407   1.000
    C185    C    0.86557   0.55953   0.43407   1.000
    C186    C    0.29836   0.58708   0.45055   1.000
    C187    C    0.79835   0.58709   0.45054   1.000
    C188    C    0.23490   0.54443   0.43370   1.000
    C189    C    0.73489   0.54444   0.43370   1.000
    C190    C    0.43312   0.60447   0.45211   1.000
    C191    C    0.93311   0.60447   0.45210   1.000
    C192    C    0.99456   0.61450   0.42248   1.000
    C193    C    0.49455   0.61451   0.42248   1.000
    C194    C    0.05782   0.65725   0.43962   1.000
    C195    C    0.55781   0.65726   0.43960   1.000
    C196    C    0.06212   0.69085   0.48712   1.000
    C197    C    0.56211   0.69085   0.48712   1.000
    C198    C    0.00112   0.68182   0.51662   1.000
    C199    C    0.50112   0.68182   0.51662   1.000
    C200    C    0.43764   0.63976   0.49932   1.000
    C201    C    0.93763   0.63977   0.49932   1.000
    C202    C    0.13101   0.73409   0.50646   1.000
    C203    C    0.63100   0.73409   0.50646   1.000
    C204    C    0.22341   0.84461   0.48072   1.000
    C205    C    0.72340   0.84461   0.48072   1.000
    C206    C    0.24673   0.90915   0.44560   1.000
    C207    C    0.74672   0.90915   0.44560   1.000
    C208    C    0.31542   0.95124   0.44891   1.000
    C209    C    0.81541   0.95124   0.44891   1.000
    C210    C    0.36025   0.93220   0.48803   1.000
    C211    C    0.86024   0.93220   0.48803   1.000
    C212    C    0.33583   0.87077   0.52381   1.000
    C213    C    0.83582   0.87077   0.52381   1.000
    C214    C    0.26776   0.82574   0.52002   1.000
    C215    C    0.76775   0.82574   0.52002   1.000
    C216    C    0.34296   0.01559   0.41077   1.000
    C217    C    0.84295   0.01559   0.41077   1.000
    C218    C    0.38245   0.85305   0.56680   1.000
    C219    C    0.88244   0.85305   0.56680   1.000
    C220    C    0.03143   0.14573   0.81620   1.000
    C221    C    0.53142   0.14573   0.81620   1.000
    C222    C    0.46402   0.12493   0.83756   1.000
    C223    C    0.96401   0.12493   0.83756   1.000
    C224    C    0.42122   0.05053   0.82010   1.000
    C225    C    0.92121   0.05053   0.82010   1.000
    C226    C    0.44518   0.99997   0.78030   1.000
    C227    C    0.94517   0.99997   0.78030   1.000
    C228    C    0.01286   0.02035   0.76003   1.000
    C229    C    0.51286   0.02035   0.76003   1.000
    C230    C    0.05702   0.09262   0.77829   1.000
    C231    C    0.55702   0.09262   0.77829   1.000
    C232    C    0.07386   0.22766   0.83322   1.000
    C233    C    0.57385   0.22766   0.83322   1.000
    C234    C    0.03809   0.96653   0.71770   1.000
    C235    C    0.53809   0.96653   0.71774   1.000
    C236    C    0.33330   0.07135   0.88218   1.000
    C237    C    0.83330   0.07135   0.88218   1.000
    C238    C    0.26431   0.02681   0.90022   1.000
    C239    C    0.76430   0.02682   0.90020   1.000
    C240    C    0.19774   0.05553   0.88384   1.000
    C241    C    0.69773   0.05554   0.88384   1.000
    C242    C    0.13388   0.01361   0.90088   1.000
    C243    C    0.63387   0.01361   0.90088   1.000
    C244    C    0.13437   0.94108   0.93463   1.000
    C245    C    0.63436   0.94108   0.93463   1.000
    C246    C    0.20135   0.91294   0.95105   1.000
    C247    C    0.70134   0.91294   0.95100   1.000
    C248    C    0.26503   0.95566   0.93442   1.000
    C249    C    0.76502   0.95567   0.93442   1.000
    C250    C    0.06662   0.89598   0.95244   1.000
    C251    C    0.56661   0.89598   0.95245   1.000
    C252    C    0.50538   0.88672   0.92279   1.000
    C253    C    0.00000   0.88672   0.92279   1.000
    C254    C    0.44195   0.84376   0.93977   1.000
    C255    C    0.94194   0.84376   0.93977   1.000
    C256    C    0.43728   0.80936   0.98716   1.000
    C257    C    0.93727   0.80936   0.98716   1.000
    C258    C    0.49807   0.81763   0.01668   1.000
    C259    C    0.99806   0.81762   0.01668   1.000
    C260    C    0.06172   0.85981   0.99951   1.000
    C261    C    0.56171   0.85982   0.99951   1.000
    C262    C    0.36825   0.76585   0.00638   1.000
    C263    C    0.86825   0.76585   0.00638   1.000
    C264    C    0.27627   0.65541   0.98028   1.000
    C265    C    0.77626   0.65541   0.98020   1.000
    C266    C    0.25346   0.59123   0.94501   1.000
    C267    C    0.75345   0.59123   0.94501   1.000
    C268    C    0.18469   0.54921   0.94800   1.000
    C269    C    0.68468   0.54921   0.94800   1.000
    C270    C    0.13915   0.56814   0.98686   1.000
    C271    C    0.63914   0.56814   0.98680   1.000
    C272    C    0.16297   0.62935   0.02275   1.000
    C273    C    0.66296   0.62934   0.02275   1.000
    C274    C    0.23118   0.67422   0.01934   1.000
    C275    C    0.73118   0.67422   0.01934   1.000
    C276    C    0.15762   0.48513   0.90982   1.000
    C277    C    0.65762   0.48513   0.90980   1.000
    C278    C    0.11546   0.64701   0.06535   1.000
    C279    C    0.61545   0.64701   0.06535   1.000
    C280    C    0.03093   0.64584   0.68387   1.000
    C281    C    0.53092   0.64584   0.68387   1.000
    C282    C    0.46341   0.62516   0.66286   1.000
    C283    C    0.96340   0.62516   0.66286   1.000
    C284    C    0.42067   0.55068   0.68054   1.000
    C285    C    0.92067   0.55068   0.68054   1.000
    C286    C    0.44477   0.50000   0.72022   1.000
    C287    C    0.94477   0.50000   0.72022   1.000
    C288    C    0.01253   0.52029   0.74015   1.000
    C289    C    0.51252   0.52029   0.74015   1.000
    C290    C    0.05663   0.59258   0.72167   1.000
    C291    C    0.55662   0.59258   0.72167   1.000
    C292    C    0.07349   0.72772   0.66670   1.000
    C293    C    0.57349   0.72772   0.66670   1.000
    C294    C    0.03789   0.46645   0.78234   1.000
    C295    C    0.53788   0.46645   0.78234   1.000
    C296    C    0.33264   0.57108   0.61872   1.000
    C297    C    0.83263   0.57108   0.61872   1.000
    C298    C    0.26391   0.52613   0.60069   1.000
    C299    C    0.76390   0.52613   0.60069   1.000
    C300    C    0.19709   0.55420   0.61716   1.000
    C301    C    0.69709   0.55421   0.61710   1.000
    C302    C    0.13348   0.51230   0.59994   1.000
    C303    C    0.63348   0.51230   0.59994   1.000
    C304    C    0.13442   0.44043   0.56592   1.000
    C305    C    0.63441   0.44043   0.56590   1.000
    C306    C    0.20164   0.41288   0.54944   1.000
    C307    C    0.70163   0.41288   0.54944   1.000
    C308    C    0.26509   0.45554   0.56629   1.000
    C309    C    0.76508   0.45553   0.56629   1.000
    C310    C    0.06688   0.39549   0.54787   1.000
    C311    C    0.56687   0.39549   0.54787   1.000
    C312    C    0.50544   0.38546   0.57750   1.000
    C313    C    0.00000   0.38546   0.57750   1.000
    C314    C    0.44217   0.34271   0.56037   1.000
    C315    C    0.94216   0.34271   0.56037   1.000
    C316    C    0.43787   0.30912   0.51286   1.000
    C317    C    0.93787   0.30912   0.51286   1.000
    C318    C    0.49887   0.31815   0.48336   1.000
    C319    C    0.99886   0.31815   0.48336   1.000
    C320    C    0.06236   0.36020   0.50066   1.000
    C321    C    0.56235   0.36020   0.50066   1.000
    C322    C    0.36898   0.26588   0.49352   1.000
    C323    C    0.86897   0.26588   0.49352   1.000
    C324    C    0.27658   0.15536   0.51926   1.000
    C325    C    0.77657   0.15536   0.51926   1.000
    C326    C    0.25326   0.09082   0.55437   1.000
    C327    C    0.75325   0.09082   0.55437   1.000
    C328    C    0.18457   0.04873   0.55107   1.000
    C329    C    0.68456   0.04873   0.55107   1.000
    C330    C    0.13974   0.06777   0.51195   1.000
    C331    C    0.63973   0.06777   0.51195   1.000
    C332    C    0.16416   0.12920   0.47617   1.000
    C333    C    0.66415   0.12920   0.47617   1.000
    C334    C    0.23223   0.17423   0.47996   1.000
    C335    C    0.73222   0.17423   0.47996   1.000
    C336    C    0.15703   0.98439   0.58921   1.000
    C337    C    0.65703   0.98439   0.58921   1.000
    C338    C    0.11754   0.14692   0.43310   1.000
    C339    C    0.61753   0.14693   0.43319   1.000
    C340    C    0.46856   0.85425   0.18379   1.000
    C341    C    0.96855   0.85425   0.18379   1.000
    C342    C    0.03597   0.87505   0.16243   1.000
    C343    C    0.53597   0.87505   0.16243   1.000
    C344    C    0.07877   0.94945   0.17989   1.000
    C345    C    0.57877   0.94945   0.17989   1.000
    C346    C    0.05481   0.00001   0.21968   1.000
    C347    C    0.55480   0.00001   0.21969   1.000
    C348    C    0.48712   0.97963   0.23996   1.000
    C349    C    0.98712   0.97963   0.23996   1.000
    C350    C    0.44296   0.90736   0.22170   1.000
    C351    C    0.94296   0.90736   0.22170   1.000
    C352    C    0.42613   0.77232   0.16676   1.000
    C353    C    0.92612   0.77232   0.16676   1.000
    C354    C    0.46189   0.03346   0.28224   1.000
    C355    C    0.96189   0.03346   0.28224   1.000
    C356    C    0.16669   0.92862   0.11781   1.000
    C357    C    0.66668   0.92862   0.11780   1.000
    C358    C    0.23569   0.97316   0.09970   1.000
    C359    C    0.73568   0.97316   0.09977   1.000
    C360    C    0.30226   0.94444   0.11615   1.000
    C361    C    0.80225   0.94444   0.11610   1.000
    C362    C    0.36611   0.98636   0.09911   1.000
    C363    C    0.86611   0.98637   0.09911   1.000
    C364    C    0.36562   0.05889   0.06536   1.000
    C365    C    0.86562   0.05890   0.06536   1.000
    C366    C    0.29864   0.08703   0.04893   1.000
    C367    C    0.79863   0.08703   0.04894   1.000
    C368    C    0.23496   0.04430   0.06557   1.000
    C369    C    0.73495   0.04431   0.06557   1.000
    C370    C    0.43337   0.10399   0.04754   1.000
    C371    C    0.93336   0.10400   0.04754   1.000
    C372    C    0.99462   0.11325   0.07720   1.000
    C373    C    0.49461   0.11325   0.07700   1.000
    C374    C    0.05805   0.15621   0.06022   1.000
    C375    C    0.55804   0.15622   0.06022   1.000
    C376    C    0.06271   0.19062   0.01283   1.000
    C377    C    0.56271   0.19062   0.01283   1.000
    C378    C    0.00192   0.18236   0.98331   1.000
    C379    C    0.50191   0.18235   0.98331   1.000
    C380    C    0.43827   0.14016   0.00048   1.000
    C381    C    0.93826   0.14017   0.00048   1.000
    C382    C    0.13174   0.23412   0.99361   1.000
    C383    C    0.63173   0.23412   0.99361   1.000
    C384    C    0.22372   0.34458   0.01970   1.000
    C385    C    0.72371   0.34458   0.01970   1.000
    C386    C    0.24652   0.40876   0.05497   1.000
    C387    C    0.74652   0.40876   0.05497   1.000
    C388    C    0.31529   0.45078   0.05198   1.000
    C389    C    0.81528   0.45078   0.05198   1.000
    C390    C    0.36083   0.43186   0.01312   1.000
    C391    C    0.86082   0.43186   0.01312   1.000
    C392    C    0.33701   0.37065   0.97724   1.000
    C393    C    0.83700   0.37065   0.97724   1.000
    C394    C    0.26880   0.32577   0.98065   1.000
    C395    C    0.76880   0.32577   0.98065   1.000
    C396    C    0.34236   0.51486   0.09016   1.000
    C397    C    0.84235   0.51486   0.09016   1.000
    C398    C    0.38452   0.35300   0.93463   1.000
    C399    C    0.88452   0.35299   0.93463   1.000
    O400    O    0.36890   0.24623   0.31027   1.000
    O401    O    0.86890   0.24623   0.31027   1.000
    O402    O    0.44715   0.22702   0.37019   1.000
    O403    O    0.94714   0.22702   0.37019   1.000
    O404    O    0.14450   0.47676   0.33776   1.000
    O405    O    0.64449   0.47676   0.33776   1.000
    O406    O    0.15653   0.80464   0.47300   1.000
    O407    O    0.65652   0.80464   0.47300   1.000
    O408    O    0.36873   0.78902   0.59573   1.000
    O409    O    0.86873   0.78902   0.59573   1.000
    O410    O    0.43807   0.91129   0.57014   1.000
    O411    O    0.93806   0.91130   0.57014   1.000
    O412    O    0.41040   0.03027   0.40663   1.000
    O413    O    0.91039   0.03027   0.40663   1.000
    O414    O    0.39406   0.53861   0.21283   1.000
    O415    O    0.89406   0.53861   0.21283   1.000
    O416    O    0.00969   0.56992   0.18933   1.000
    O417    O    0.50968   0.56992   0.18933   1.000
    O418    O    0.29677   0.05363   0.38283   1.000
    O419    O    0.79676   0.05363   0.38283   1.000
    O420    O    0.13150   0.25387   0.81012   1.000
    O421    O    0.63149   0.25387   0.81012   1.000
    O422    O    0.05303   0.27282   0.87011   1.000
    O423    O    0.55302   0.27282   0.87011   1.000
    O424    O    0.35610   0.02311   0.83878   1.000
    O425    O    0.85610   0.02310   0.83879   1.000
    O426    O    0.34334   0.69524   0.97302   1.000
    O427    O    0.84333   0.69524   0.97302   1.000
    O428    O    0.12843   0.71125   0.09419   1.000
    O429    O    0.62842   0.71125   0.09419   1.000
    O430    O    0.05992   0.58861   0.06869   1.000
    O431    O    0.55991   0.58861   0.06869   1.000
    O432    O    0.09031   0.46897   0.90622   1.000
    O433    O    0.59030   0.46897   0.90622   1.000
    O434    O    0.10615   0.96139   0.71270   1.000
    O435    O    0.60615   0.96139   0.71270   1.000
    O436    O    0.49051   0.93025   0.68960   1.000
    O437    O    0.99050   0.93025   0.68960   1.000
    O438    O    0.20394   0.44844   0.88136   1.000
    O439    O    0.70393   0.44844   0.88136   1.000
    O440    O    0.13108   0.75375   0.68970   1.000
    O441    O    0.63108   0.75375   0.68970   1.000
    O442    O    0.05284   0.77296   0.62980   1.000
    O443    O    0.55283   0.77296   0.62900   1.000
    O444    O    0.35549   0.52322   0.66223   1.000
    O445    O    0.85548   0.52322   0.66223   1.000
    O446    O    0.34346   0.19533   0.52690   1.000
    O447    O    0.84345   0.19533   0.52690   1.000
    O448    O    0.13126   0.21096   0.40425   1.000
    O449    O    0.63125   0.21096   0.40425   1.000
    O450    O    0.06192   0.08867   0.42984   1.000
    O451    O    0.56191   0.08868   0.42984   1.000
    O452    O    0.08959   0.96971   0.59330   1.000
    O453    O    0.58958   0.96971   0.59330   1.000
    O454    O    0.10592   0.46137   0.78715   1.000
    O455    O    0.60592   0.46137   0.78715   1.000
    O456    O    0.49030   0.43006   0.81065   1.000
    O457    O    0.99030   0.43006   0.81065   1.000
    O458    O    0.20322   0.94634   0.61715   1.000
    O459    O    0.70321   0.94634   0.61715   1.000
    O460    O    0.36849   0.74611   0.18980   1.000
    O461    O    0.86848   0.74611   0.18980   1.000
    O462    O    0.44696   0.72716   0.12988   1.000
    O463    O    0.94695   0.72716   0.12988   1.000
    O464    O    0.14389   0.97687   0.16120   1.000
    O465    O    0.64388   0.97687   0.16121   1.000
    O466    O    0.15665   0.30475   0.02697   1.000
    O467    O    0.65665   0.30474   0.02697   1.000
    O468    O    0.37157   0.28874   0.90579   1.000
    O469    O    0.87156   0.28874   0.90579   1.000
    O470    O    0.44006   0.41140   0.93129   1.000
    O471    O    0.94005   0.41140   0.93129   1.000
    O472    O    0.40967   0.53101   0.09370   1.000
    O473    O    0.90967   0.53101   0.09370   1.000
    O474    O    0.39383   0.03859   0.28729   1.000
    O475    O    0.89383   0.03859   0.28729   1.000
    O476    O    0.00948   0.06973   0.31038   1.000
    O477    O    0.50947   0.06974   0.31038   1.000
    O478    O    0.29605   0.55155   0.11862   1.000
    O479    O    0.79604   0.55155   0.11862   1.000
loop_
    _geom_bond_atom_site_label_1
    _geom_bond_atom_site_label_2
    _geom_bond_distance
    _geom_bond_site_symmetry_2
    _ccdc_geom_bond_type
    C381   C371      1.40406      .   S
    C381   H149      1.08856  1_554   S
    C381   C378      1.39271  1_654   S
    C380   C370      1.40406      .   S
    C380   H148      1.08856  1_554   S
    C380   C379      1.39245  1_554   S
    C263   H81       1.10480      .   S
    C263   H79       1.10204      .   S
    C263   O427      1.44284  1_554   S
    C263   C257      1.50303  1_554   S
    C262   H80       1.10478      .   S
    C262   H78       1.10205      .   S
    C262   O426      1.44282  1_554   S
    C262   C256      1.50304  1_554   S
    H157   C391      1.08604      .   S
    H156   C390      1.08606      .   S
    C377   C375      1.40307      .   S
    C377   C379      1.39831  1_554   S
    C377   C383      1.50303  1_554   S
    C376   C374      1.40308      .   S
    C376   C378      1.39832  1_554   S
    C376   C382      1.50303  1_554   S
    C391   C389      1.40237      .   S
    C391   C393      1.39339  1_554   S
    C390   C388      1.40236      .   S
    C390   C392      1.39338  1_554   S
    C258   H74       1.08948      .   S
    C258   C256      1.39828  1_554   S
    C258   C261      1.39247  1_554   S
    C259   H75       1.08949      .   S
    C259   C257      1.39830  1_554   S
    C259   C260      1.39271  1_654   S
    C275   C273      1.40510      .   S
    C275   H87       1.08788      .   S
    C275   C265      1.40282  1_554   S
    C274   C272      1.40510      .   S
    C274   H86       1.08787      .   S
    C274   C264      1.40111  1_554   S
    C385   O467      1.36763      .   S
    C385   C387      1.40381      .   S
    C385   C395      1.40088  1_554   S
    C384   O466      1.36763      .   S
    C384   C386      1.40382      .   S
    C384   C394      1.40088  1_554   S
    C273   C279      1.50079      .   S
    C273   C271      1.39476  1_554   S
    C272   C278      1.50078      .   S
    C272   C270      1.39358  1_554   S
    H77    C261      1.08853  1_554   S
    H76    C260      1.08854  1_554   S
    H138   C366      1.09105      .   S
    H139   C367      1.08998      .   S
    O466   C382      1.44287  1_554   S
    O467   C383      1.44286  1_554   S
    C371   C365      1.47914      .   S
    C371   C372      1.40829      .   S
    C370   C364      1.47914      .   S
    C370   C373      1.40483      .   S
    C366   C364      1.40633      .   S
    C366   C368      1.39126      .   S
    C367   C365      1.40626      .   S
    C367   C369      1.39116      .   S
    H140   C368      1.09001      .   S
    H141   C369      1.08992      .   S
    C388   C386      1.39662      .   S
    C388   C396      1.48296      .   S
    C389   C387      1.39661      .   S
    C389   C397      1.48297      .   S
    C387   H155      1.08856      .   S
    C386   H154      1.08856      .   S
    C374   C372      1.39196  1_455   S
    C374   H144      1.09036      .   S
    C375   C373      1.39012      .   S
    C375   H145      1.09035      .   S
    C279   O431      1.31177      .   S
    C279   O429      1.24451      .   S
    C278   O430      1.31175      .   S
    C278   O428      1.24452      .   S
    C364   C362      1.40749  1_545   S
    C365   C363      1.40750  1_545   S
    C369   C359      1.40105  1_545   S
    C368   C358      1.39972  1_545   S
    O431   Zn14      1.88590      .   S
    O430   Zn15      1.88608  1_455   S
    C373   H143      1.09548      .   S
    C372   H142      1.09052      .   S
    C396   O472      1.26934      .   S
    C396   O478      1.29856      .   S
    C397   O473      1.26934      .   S
    C397   O479      1.29858      .   S
    H132   C356      1.10088      .   S
    H133   C357      1.10070      .   S
    O472   Zn14      2.05609      .   S
    O473   Zn15      2.05608      .   S
    C362   H136      1.08905      .   S
    C362   C360      1.39299      .   S
    C363   H137      1.08905      .   S
    C363   C361      1.39253      .   S
    C358   C360      1.40238      .   S
    C358   C356      1.49795      .   S
    C359   C361      1.40131      .   S
    C359   C357      1.49723      .   S
    C361   H135      1.09259      .   S
    C360   H134      1.09148      .   S
    C357   H131      1.09910      .   S
    C357   O465      1.46246      .   S
    C356   H130      1.09902      .   S
    C356   O464      1.46203      .   S
    O479   Zn13      1.91518      .   S
    O478   Zn12      1.91518      .   S
    Zn14   O462      2.04213      .   S
    Zn14   O417      1.97989      .   S
    Zn15   O463      2.04213      .   S
    Zn15   O416      1.97993  1_655   S
    O463   C353      1.28193      .   S
    O462   C352      1.28193      .   S
    H125   C343      1.08763      .   S
    H124   C342      1.08764      .   S
    O464   C344      1.36041      .   S
    O465   C345      1.36032      .   S
    C343   C345      1.40165      .   S
    C343   C340      1.40672      .   S
    C342   C344      1.40165      .   S
    C342   C341      1.40697  1_455   S
    Zn12   O460      1.95260      .   S
    Zn12   O414      1.96159      .   S
    Zn13   O461      1.95262      .   S
    Zn13   O415      1.96158      .   S
    C352   C340      1.47788      .   S
    C352   O460      1.28987      .   S
    C353   C341      1.47787      .   S
    C353   O461      1.28987      .   S
    C344   C346      1.40652  1_565   S
    C345   C347      1.40674  1_565   S
    C340   C350      1.39791      .   S
    C341   C351      1.39793      .   S
    O416   C175      1.27708  1_455   S
    O417   C174      1.27687      .   S
    O415   C175      1.27969      .   S
    O414   C174      1.27969      .   S
    C175   C169      1.49403      .   S
    C174   C168      1.49404      .   S
    C346   H126      1.08906      .   S
    C346   C349      1.39830  1_445   S
    C347   H127      1.08855      .   S
    C347   C348      1.39793  1_545   S
    C351   H129      1.08684      .   S
    C351   C349      1.40055      .   S
    C350   H128      1.08685      .   S
    C350   C348      1.40055      .   S
    C348   C354      1.49388  1_565   S
    C349   C355      1.49388  1_565   S
    C168   C170      1.40017      .   S
    C168   C167      1.39763      .   S
    C169   C171      1.40018      .   S
    C169   C166      1.39789  1_655   S
    H20    C170      1.08676      .   S
    H21    C171      1.08675      .   S
    H19    C167      1.08904      .   S
    H18    C166      1.08905      .   S
    C171   C161      1.39791      .   S
    C170   C160      1.39792      .   S
    C166   C164      1.40622      .   S
    C167   C165      1.40622      .   S
    C354   O474      1.28049      .   S
    C354   O477      1.27727      .   S
    C355   O475      1.28049      .   S
    C355   O476      1.27746  1_655   S
    O474   Zn0       1.96022      .   S
    O475   Zn1       1.96022      .   S
    O401   C173      1.29086      .   S
    O401   Zn1       1.95309      .   S
    O400   C172      1.29086      .   S
    O400   Zn0       1.95309      .   S
    O476   Zn3       1.98301  1_455   S
    O477   Zn2       1.98297      .   S
    C161   C173      1.47780      .   S
    C161   C162      1.40719  1_655   S
    C160   C172      1.47779      .   S
    C160   C163      1.40693      .   S
    C165   C163      1.40191      .   S
    C165   O405      1.36028      .   S
    C164   C162      1.40191      .   S
    C164   O404      1.36028      .   S
    C172   O402      1.28243      .   S
    C173   O403      1.28243      .   S
    Zn1    O419      1.91470      .   S
    Zn0    O418      1.91469      .   S
    C162   H16       1.08764      .   S
    C163   H17       1.08764      .   S
    O405   C177      1.46243      .   S
    O404   C176      1.46244      .   S
    H26    C180      1.09171      .   S
    H27    C181      1.09158      .   S
    O403   Zn3       2.04090      .   S
    O402   Zn2       2.04090      .   S
    H22    C176      1.09897      .   S
    H23    C177      1.09896      .   S
    Zn3    O413      2.05245      .   S
    Zn3    O450      1.88449  1_655   S
    Zn2    O412      2.05245      .   S
    Zn2    O451      1.88426      .   S
    C176   C178      1.49792      .   S
    C176   H24       1.10103      .   S
    C177   C179      1.49792      .   S
    C177   H25       1.10103      .   S
    C180   C178      1.40191      .   S
    C180   C182      1.39316      .   S
    O418   C216      1.29881      .   S
    O419   C217      1.29880      .   S
    C181   C179      1.40185      .   S
    C181   C183      1.39306      .   S
    H35    C193      1.09041      .   S
    H34    C192      1.09043      .   S
    H29    C183      1.08907      .   S
    H28    C182      1.08905      .   S
    C179   C189      1.40101      .   S
    C178   C188      1.40093      .   S
    C183   C185      1.40737      .   S
    C182   C184      1.40731      .   S
    O448   C338      1.24267      .   S
    O449   C339      1.24426      .   S
    O413   C217      1.26973      .   S
    O412   C216      1.26972      .   S
    C217   C209      1.48411  1_545   S
    C216   C208      1.48413  1_545   S
    H37    C195      1.09055      .   S
    H36    C194      1.09041      .   S
    H46    C206      1.08817      .   S
    H47    C207      1.08815      .   S
    C192   C194      1.39201  1_655   S
    C192   C191      1.40800      .   S
    C193   C195      1.39183      .   S
    C193   C190      1.40791      .   S
    O450   C338      1.31188      .   S
    O451   C339      1.31206      .   S
    C338   C332      1.50411      .   S
    C339   C333      1.50214      .   S
    C188   H32       1.08948      .   S
    C188   C186      1.39157      .   S
    C189   H33       1.09007      .   S
    C189   C187      1.39149      .   S
    C185   C187      1.40628      .   S
    C185   C191      1.47941      .   S
    C184   C186      1.40635      .   S
    C184   C190      1.47949      .   S
    C195   C197      1.40340      .   S
    C194   C196      1.40292      .   S
    C206   C208      1.39678      .   S
    C206   C204      1.40410      .   S
    C207   C209      1.39680      .   S
    C207   C205      1.40409      .   S
    H110   C318      1.08979      .   S
    H111   C319      1.08978      .   S
    C209   C211      1.40272      .   S
    C208   C210      1.40273      .   S
    C187   H31       1.09004      .   S
    C186   H30       1.08998      .   S
    H123   C335      1.08782      .   S
    H122   C334      1.08783      .   S
    C191   C201      1.40465      .   S
    C190   C200      1.40436      .   S
    H115   C323      1.10196      .   S
    H114   C322      1.10196      .   S
    O407   C205      1.36827      .   S
    O407   C203      1.44438      .   S
    O406   C204      1.36827      .   S
    O406   C202      1.44437      .   S
    C332   C334      1.40497      .   S
    C332   C330      1.39384      .   S
    C333   C335      1.40499      .   S
    C333   C331      1.39383      .   S
    H112   C320      1.08990      .   S
    H113   C321      1.08875      .   S
    C335   C325      1.40071      .   S
    C334   C324      1.40071      .   S
    C204   C214      1.40072      .   S
    C205   C215      1.40072      .   S
    C319   C320      1.39296  1_655   S
    C319   C317      1.39835      .   S
    C318   C321      1.39271      .   S
    C318   C316      1.39835      .   S
    C197   C203      1.50332      .   S
    C197   C199      1.39834      .   S
    C196   C202      1.50332      .   S
    C196   C198      1.39836      .   S
    C210   H48       1.08606      .   S
    C210   C212      1.39384      .   S
    C211   H49       1.08607      .   S
    C211   C213      1.39383      .   S
    H117   C323      1.10502      .   S
    H116   C322      1.10493      .   S
    C322   C316      1.50331      .   S
    C322   O446      1.44290      .   S
    C323   C317      1.50331      .   S
    C323   O447      1.44289      .   S
    C201   C198      1.39296  1_655   S
    C201   H41       1.08875      .   S
    C200   C199      1.39272      .   S
    C200   H40       1.08873      .   S
    C320   C310      1.40436      .   S
    C321   C311      1.40436      .   S
    C202   H44       1.10494      .   S
    C202   H42       1.10192      .   S
    C203   H45       1.10494      .   S
    C203   H43       1.10192      .   S
    H121   C331      1.08614      .   S
    H120   C330      1.08607      .   S
    C330   C328      1.40270      .   S
    C331   C329      1.40272      .   S
    C316   C314      1.40314      .   S
    C317   C315      1.40314      .   S
    C198   H38       1.08981      .   S
    C199   H39       1.08978      .   S
    C324   O446      1.36792      .   S
    C324   C326      1.40390      .   S
    C325   O447      1.36793      .   S
    C325   C327      1.40390      .   S
    C215   C213      1.40499      .   S
    C215   H51       1.08782      .   S
    C214   C212      1.40499      .   S
    C214   H50       1.08782      .   S
    H103   C307      1.09005      .   S
    H102   C306      1.09003      .   S
    C213   C219      1.50236      .   S
    C212   C218      1.50236      .   S
    C311   C305      1.47940      .   S
    C311   C312      1.40792      .   S
    C310   C304      1.47960      .   S
    C310   C313      1.49097      .   S
    C306   C304      1.40637      .   S
    C306   C308      1.39158      .   S
    C307   C305      1.40620      .   S
    C307   C309      1.39159      .   S
    C329   C327      1.39677      .   S
    C329   C337      1.48410  1_545   S
    C328   C326      1.39677      .   S
    C328   C336      1.48410  1_545   S
    H104   C308      1.09017      .   S
    H105   C309      1.09016      .   S
    C326   H118      1.08836      .   S
    C327   H119      1.08836      .   S
    C315   C313      1.30943  1_655   S
    C315   H109      1.08939      .   S
    C314   C312      1.39191      .   S
    C314   H108      1.08939      .   S
    C305   C303      1.40758      .   S
    C304   C302      1.40719      .   S
    C309   C299      1.40084      .   S
    C308   C298      1.40081      .   S
    C219   O411      1.31204      .   S
    C219   O409      1.24405      .   S
    C218   O410      1.31204      .   S
    C218   O408      1.24403      .   S
    O410   Zn11      1.88439      .   S
    O411   Zn10      1.88462  1_655   S
    C313   H107      1.09034      .   S
    C312   H106      1.09041      .   S
    C337   O453      1.26961      .   S
    C337   O459      1.29882      .   S
    C336   O452      1.26960      .   S
    C336   O458      1.29880      .   S
    H96    C296      1.10103      .   S
    H97    C297      1.10105      .   S
    O453   Zn11      2.05307      .   S
    O452   Zn10      2.05306      .   S
    C302   H100      1.08907      .   S
    C302   C300      1.39315      .   S
    C303   H101      1.08908      .   S
    C303   C301      1.39259      .   S
    C299   C301      1.40141      .   S
    C299   C297      1.49793      .   S
    C298   C300      1.40195      .   S
    C298   C296      1.49793      .   S
    C301   H99       1.09253      .   S
    O458   Zn8       1.91466      .   S
    O459   Zn9       1.91465      .   S
    C300   H98       1.09139      .   S
    C296   H94       1.09899      .   S
    C296   O444      1.46261      .   S
    C297   H95       1.09898      .   S
    C297   O445      1.46261      .   S
    Zn11   O443      2.03840      .   S
    Zn11   O436      1.98272      .   S
    Zn10   O442      2.04090      .   S
    Zn10   O437      1.98276  1_455   S
    O443   C293      1.29989      .   S
    O442   C292      1.28222      .   S
    H89    C283      1.08765      .   S
    H88    C282      1.08765      .   S
    O445   C285      1.36020      .   S
    O444   C284      1.36020      .   S
    C283   C285      1.40190      .   S
    C283   C280      1.40716  1_655   S
    C282   C284      1.40190      .   S
    C282   C281      1.40693      .   S
    Zn8    O440      1.95300      .   S
    Zn8    O434      1.96042      .   S
    Zn9    O441      1.95301      .   S
    Zn9    O435      1.96040      .   S
    C292   C280      1.47780      .   S
    C292   O440      1.29071      .   S
    C293   C281      1.47779      .   S
    C293   O441      1.29071      .   S
    C285   C287      1.40622      .   S
    C284   C286      1.40623      .   S
    C281   C291      1.39794      .   S
    C280   C290      1.39795      .   S
    O437   C234      1.27677  1_655   S
    O436   C235      1.27725      .   S
    O434   C234      1.28034      .   S
    O435   C235      1.28048      .   S
    C234   C228      1.49495  1_565   S
    C235   C229      1.49410  1_565   S
    C287   H91       1.08904      .   S
    C287   C288      1.39787  1_655   S
    C286   H90       1.08904      .   S
    C286   C289      1.39762      .   S
    C291   H93       1.08586      .   S
    C291   C289      1.40015      .   S
    C290   H92       1.08585      .   S
    C290   C288      1.40016      .   S
    C288   C294      1.49319      .   S
    C289   C295      1.49318      .   S
    C228   C230      1.40055      .   S
    C228   C227      1.39817  1_445   S
    C229   C231      1.40055      .   S
    C229   C226      1.39791  1_545   S
    H56    C230      1.08684      .   S
    H57    C231      1.08683      .   S
    H54    C226      1.08906      .   S
    H55    C227      1.08897      .   S
    C231   C221      1.39792      .   S
    C230   C220      1.39790      .   S
    C227   C225      1.40672  1_565   S
    C226   C224      1.40673  1_565   S
    C295   O455      1.27984      .   S
    C295   O456      1.27753      .   S
    C294   O454      1.27982      .   S
    C294   O457      1.27773  1_455   S
    O455   Zn5       1.96174      .   S
    O454   Zn4       1.96175      .   S
    O420   C232      1.29067      .   S
    O420   Zn4       1.95326      .   S
    O421   C233      1.29067      .   S
    O421   Zn5       1.95326      .   S
    O456   Zn7       1.97986      .   S
    O457   Zn6       1.97990  1_655   S
    C221   C233      1.47779      .   S
    C221   C222      1.40668      .   S
    C220   C232      1.47780      .   S
    C220   C223      1.40694  1_455   S
    C225   C223      1.40166      .   S
    C225   O425      1.36040      .   S
    C224   C222      1.40166      .   S
    C224   O424      1.36029      .   S
    C233   O423      1.28216      .   S
    C232   O422      1.28216      .   S
    Zn4    O438      1.91500      .   S
    Zn5    O439      1.91499      .   S
    C223   H53       1.08763      .   S
    C222   H52       1.08763      .   S
    O424   C236      1.46220      .   S
    O425   C237      1.46199      .   S
    H63    C241      1.09150      .   S
    H62    C240      1.09151      .   S
    O422   Zn6       2.04212      .   S
    O423   Zn7       2.04212      .   S
    H59    C237      1.09905      .   S
    H58    C236      1.09905      .   S
    Zn7    O433      2.05545      .   S
    Zn7    O470      1.88610      .   S
    Zn6    O432      2.05544      .   S
    Zn6    O471      1.88627  1_455   S
    O439   C277      1.29825      .   S
    O438   C276      1.29860      .   S
    C237   C239      1.49714      .   S
    C237   H61       1.10089      .   S
    C236   C238      1.49733      .   S
    C236   H60       1.10091      .   S
    C240   C238      1.40175      .   S
    C240   C242      1.39300      .   S
    C241   C239      1.40156      .   S
    C241   C243      1.39300      .   S
    H70    C252      1.09051      .   S
    H71    C253      1.09025      .   S
    H64    C242      1.08904      .   S
    H65    C243      1.08906      .   S
    C239   C249      1.40143  1_545   S
    C238   C248      1.40108  1_545   S
    C242   C244      1.40753  1_545   S
    C243   C245      1.40751  1_545   S
    O469   C399      1.24460      .   S
    O468   C398      1.24461      .   S
    O433   C277      1.26942      .   S
    O432   C276      1.26947      .   S
    C277   C269      1.48337      .   S
    C276   C268      1.48299      .   S
    H83    C267      1.08838      .   S
    H82    C266      1.08837      .   S
    H73    C255      1.09120      .   S
    H72    C254      1.09034      .   S
    C252   C254      1.39196      .   S
    C252   C251      1.40801      .   S
    C253   C255      1.31038  1_455   S
    C253   C250      1.48999      .   S
    O471   C399      1.31174      .   S
    O470   C398      1.31175      .   S
    C248   H68       1.08993      .   S
    C248   C246      1.39117      .   S
    C249   H69       1.09000      .   S
    C249   C247      1.39071      .   S
    C398   C392      1.50100      .   S
    C245   C247      1.40579      .   S
    C245   C251      1.47917      .   S
    C399   C393      1.50101      .   S
    C244   C246      1.40624      .   S
    C244   C250      1.47906      .   S
    C255   C257      1.40306      .   S
    C254   C256      1.40305      .   S
    C267   C269      1.39661      .   S
    C267   C265      1.40227      .   S
    C266   C268      1.39659      .   S
    C266   C264      1.40381      .   S
    H147   C379      1.09104      .   S
    H146   C378      1.08950      .   S
    C268   C270      1.40243      .   S
    C269   C271      1.40115      .   S
    C247   H67       1.09088      .   S
    C246   H66       1.09001      .   S
    H159   C395      1.08790      .   S
    H158   C394      1.08790      .   S
    C250   C260      1.40430      .   S
    C251   C261      1.40403      .   S
    H150   C382      1.10201      .   S
    H151   C383      1.10202      .   S
    O426   C264      1.36759      .   S
    O427   C265      1.36727      .   S
    C392   C394      1.40511      .   S
    C393   C395      1.40510      .   S
    C271   H85       1.08615      .   S
    C270   H84       1.08604      .   S
    H153   C383      1.10482      .   S
    H152   C382      1.10480      .   S
