# CIF file generated by openbabel 2.4.90, see http://openbabel.sf.net
data_I
_chemical_name_common 'VESTA_phase_1'
_cell_length_a 14.826
_cell_length_b 21.759
_cell_length_c 12.748
_cell_angle_alpha 107.622
_cell_angle_beta 89.997
_cell_angle_gamma 90
_space_group_name_H-M_alt 'P 1'
_space_group_name_Hall 'P 1'
loop_
    _symmetry_equiv_pos_as_xyz
    x,y,z
loop_
    _atom_site_label
    _atom_site_type_symbol
    _atom_site_fract_x
    _atom_site_fract_y
    _atom_site_fract_z
    _atom_site_occupancy
    Zn0     Zn   0.00000   0.00000   0.99970   1.000
    Zn1     Zn   0.00000   0.49917   0.00000   1.000
    Zn2     Zn   0.50000   0.99999   0.00021   1.000
    Zn3     Zn   0.50000   0.50080   0.99995   1.000
    H4      H    0.10518   0.30898   0.02146   1.000
    H5      H    0.10456   0.80906   0.02178   1.000
    H6      H    0.60438   0.30877   0.02090   1.000
    H7      H    0.60501   0.80883   0.02130   1.000
    H8      H    0.10501   0.19112   0.97864   1.000
    H9      H    0.10439   0.69119   0.97898   1.000
    H10     H    0.60456   0.19090   0.97816   1.000
    H11     H    0.60518   0.69098   0.97849   1.000
    H12     H    0.39544   0.19090   0.97818   1.000
    H13     H    0.39482   0.69098   0.97851   1.000
    H14     H    0.89499   0.19113   0.97866   1.000
    H15     H    0.89561   0.69119   0.97899   1.000
    H16     H    0.39561   0.30877   0.02000   1.000
    H17     H    0.39499   0.80884   0.02132   1.000
    H18     H    0.89481   0.30898   0.02148   1.000
    H19     H    0.89543   0.80906   0.02180   1.000
    H20     H    0.00000   0.48541   0.75645   1.000
    H21     H    1.00000   0.98549   0.75560   1.000
    H22     H    0.49999   0.48596   0.75500   1.000
    H23     H    0.50000   0.98559   0.75630   1.000
    H24     H    0.00001   0.39994   0.57235   1.000
    H25     H    0.00001   0.89976   0.57180   1.000
    H26     H    0.50000   0.40012   0.57195   1.000
    H27     H    0.50000   0.89987   0.57250   1.000
    H28     H    0.00000   0.25785   0.74780   1.000
    H29     H    0.00001   0.75817   0.74829   1.000
    H30     H    0.50000   0.25873   0.74880   1.000
    H31     H    0.49999   0.75823   0.74885   1.000
    H32     H    0.00000   0.34940   0.92257   1.000
    H33     H    1.00000   0.84996   0.92268   1.000
    H34     H    0.49999   0.35063   0.92306   1.000
    H35     H    0.50000   0.85002   0.92331   1.000
    H36     H    0.00000   0.01438   0.24364   1.000
    H37     H    0.00001   0.51401   0.24430   1.000
    H38     H    0.50000   0.01448   0.24436   1.000
    H39     H    0.50000   0.51455   0.24353   1.000
    H40     H    0.00000   0.10010   0.42740   1.000
    H41     H    1.00000   0.59985   0.42803   1.000
    H42     H    0.49999   0.10021   0.42813   1.000
    H43     H    0.50000   0.60003   0.42763   1.000
    H44     H    0.00000   0.24174   0.25112   1.000
    H45     H    0.00000   0.74124   0.25116   1.000
    H46     H    0.50000   0.24180   0.25167   1.000
    H47     H    0.50000   0.74211   0.25217   1.000
    H48     H    0.00000   0.14996   0.07666   1.000
    H49     H    0.00001   0.64933   0.07691   1.000
    H50     H    0.50000   0.15001   0.07728   1.000
    H51     H    0.50000   0.65056   0.07740   1.000
    C52     C    0.17062   0.42371   0.05741   1.000
    C53     C    0.17030   0.92394   0.05730   1.000
    C54     C    0.67008   0.42401   0.05715   1.000
    C55     C    0.67040   0.92388   0.05749   1.000
    C56     C    0.16936   0.28335   0.01164   1.000
    C57     C    0.16874   0.78342   0.01197   1.000
    C58     C    0.66863   0.28324   0.01139   1.000
    C59     C    0.66926   0.78330   0.01171   1.000
    C60     C    0.17041   0.07609   0.94246   1.000
    C61     C    0.17009   0.57596   0.94280   1.000
    C62     C    0.67030   0.07602   0.94265   1.000
    C63     C    0.67062   0.57625   0.94256   1.000
    C64     C    0.16927   0.21666   0.98825   1.000
    C65     C    0.16864   0.71673   0.98857   1.000
    C66     C    0.66873   0.21654   0.98798   1.000
    C67     C    0.66936   0.71662   0.98830   1.000
    C68     C    0.32971   0.07603   0.94265   1.000
    C69     C    0.32938   0.57625   0.94257   1.000
    C70     C    0.82959   0.07609   0.94246   1.000
    C71     C    0.82991   0.57596   0.94283   1.000
    C72     C    0.33126   0.21654   0.98800   1.000
    C73     C    0.33064   0.71662   0.98832   1.000
    C74     C    0.83073   0.21666   0.98825   1.000
    C75     C    0.83136   0.71673   0.98858   1.000
    C76     C    0.32991   0.42401   0.05715   1.000
    C77     C    0.32959   0.92388   0.05749   1.000
    C78     C    0.82937   0.42372   0.05740   1.000
    C79     C    0.82969   0.92394   0.05730   1.000
    C80     C    0.33136   0.28324   0.01139   1.000
    C81     C    0.33073   0.78330   0.01173   1.000
    C82     C    0.83063   0.28335   0.01166   1.000
    C83     C    0.83125   0.78342   0.01197   1.000
    C84     C    0.25038   0.38907   0.04691   1.000
    C85     C    0.24990   0.88913   0.04711   1.000
    C86     C    0.74960   0.38907   0.04692   1.000
    C87     C    0.75009   0.88913   0.04711   1.000
    C88     C    0.25040   0.31856   0.02350   1.000
    C89     C    0.24979   0.81862   0.02380   1.000
    C90     C    0.74958   0.31855   0.02352   1.000
    C91     C    0.75021   0.81862   0.02381   1.000
    C92     C    0.25010   0.11083   0.95284   1.000
    C93     C    0.24962   0.61089   0.95306   1.000
    C94     C    0.74991   0.11083   0.95284   1.000
    C95     C    0.75039   0.61089   0.95300   1.000
    C96     C    0.25022   0.18134   0.97615   1.000
    C97     C    0.24960   0.68141   0.97640   1.000
    C98     C    0.74978   0.18134   0.97615   1.000
    C99     C    0.75041   0.68141   0.97640   1.000
    C100    C    0.00000   0.43425   0.74960   1.000
    C101    C    0.00004   0.93437   0.74907   1.000
    C102    C    0.50002   0.43486   0.74919   1.000
    C103    C    0.50000   0.93446   0.74974   1.000
    C104    C    0.00000   0.38683   0.64820   1.000
    C105    C    0.99997   0.88680   0.64790   1.000
    C106    C    0.49998   0.38723   0.64808   1.000
    C107    C    0.50000   0.88691   0.64856   1.000
    C108    C    0.00001   0.32144   0.64477   1.000
    C109    C    0.00004   0.82146   0.64474   1.000
    C110    C    0.50002   0.32191   0.64507   1.000
    C111    C    0.49999   0.82157   0.64500   1.000
    C112    C    0.00000   0.27150   0.54331   1.000
    C113    C    0.99999   0.77136   0.54344   1.000
    C114    C    0.49999   0.27177   0.54382   1.000
    C115    C    0.50000   0.77152   0.54407   1.000
    C116    C    0.00000   0.30751   0.74579   1.000
    C117    C    0.99997   0.80777   0.74597   1.000
    C118    C    0.49998   0.30830   0.74637   1.000
    C119    C    0.50000   0.80784   0.74658   1.000
    C120    C    0.00000   0.35820   0.84294   1.000
    C121    C    0.00000   0.85861   0.84293   1.000
    C122    C    0.50002   0.35920   0.84325   1.000
    C123    C    0.49999   0.85866   0.84356   1.000
    C124    C    0.99999   0.06551   0.25022   1.000
    C125    C    0.99996   0.56511   0.25079   1.000
    C126    C    0.49999   0.06560   0.25089   1.000
    C127    C    0.50001   0.56571   0.25038   1.000
    C128    C    0.00001   0.11306   0.35140   1.000
    C129    C    0.00004   0.61274   0.35100   1.000
    C130    C    0.50000   0.11317   0.35206   1.000
    C131    C    0.49999   0.61313   0.35170   1.000
    C132    C    0.99999   0.17840   0.35457   1.000
    C133    C    0.99996   0.67806   0.35490   1.000
    C134    C    0.49999   0.17851   0.35522   1.000
    C135    C    0.50001   0.67853   0.35520   1.000
    C136    C    1.00000   0.22845   0.45590   1.000
    C137    C    0.00002   0.72820   0.45615   1.000
    C138    C    0.50000   0.22861   0.45652   1.000
    C139    C    0.49999   0.72847   0.45666   1.000
    C140    C    0.00001   0.19214   0.25339   1.000
    C141    C    0.00004   0.69166   0.25360   1.000
    C142    C    0.50000   0.19220   0.25399   1.000
    C143    C    0.49999   0.69245   0.25418   1.000
    C144    C    0.99999   0.14131   0.15641   1.000
    C145    C    0.99996   0.64076   0.15672   1.000
    C146    C    0.49999   0.14136   0.15703   1.000
    C147    C    0.50001   0.64176   0.15703   1.000
    N148    N    0.10160   0.45198   0.06774   1.000
    N149    N    0.10148   0.95242   0.06735   1.000
    N150    N    0.60147   0.45275   0.06726   1.000
    N151    N    0.60157   0.95236   0.06772   1.000
    N152    N    0.10158   0.04760   0.93223   1.000
    N153    N    0.10149   0.54721   0.93270   1.000
    N154    N    0.60148   0.04754   0.93260   1.000
    N155    N    0.60161   0.54798   0.93223   1.000
    N156    N    0.39852   0.04754   0.93260   1.000
    N157    N    0.39840   0.54798   0.93224   1.000
    N158    N    0.89843   0.04761   0.93223   1.000
    N159    N    0.89852   0.54721   0.93272   1.000
    N160    N    0.39851   0.45275   0.06727   1.000
    N161    N    0.39842   0.95236   0.06773   1.000
    N162    N    0.89838   0.45198   0.06770   1.000
    N163    N    0.89850   0.95243   0.06736   1.000
    N164    N    0.00000   0.42048   0.84572   1.000
    N165    N    0.99998   0.92084   0.84539   1.000
    N166    N    0.49998   0.42141   0.84550   1.000
    N167    N    0.50000   0.92088   0.84602   1.000
    N168    N    0.00001   0.07909   0.15394   1.000
    N169    N    0.00003   0.57856   0.15440   1.000
    N170    N    0.50000   0.07913   0.15457   1.000
    N171    N    0.49999   0.57948   0.15426   1.000
loop_
    _geom_bond_atom_site_label_1
    _geom_bond_atom_site_label_2
    _geom_bond_distance
    _geom_bond_site_symmetry_2
    _ccdc_geom_bond_type
    Zn1    N162      2.14604  1_455   S
    Zn1    N148      2.14616      .   S
    Zn1    N169      2.19075      .   S
    Zn1    N164      2.18193  1_554   S
    Zn1    N153      2.15307  1_554   S
    Zn1    N159      2.15298  1_454   S
    Zn2    N151      2.15000      .   S
    Zn2    N161      2.15000      .   S
    Zn2    N170      2.18773  1_565   S
    Zn2    N167      2.18578  1_554   S
    Zn2    N156      2.14874  1_564   S
    Zn2    N154      2.14879  1_564   S
    C58    H6        1.09093      .   S
    C58    C90       1.40818      .   S
    C58    C66       1.39032  1_554   S
    C80    H16       1.09149      .   S
    C80    C88       1.40821      .   S
    C80    C72       1.39032  1_554   S
    C56    H4        1.09084      .   S
    C56    C88       1.40833      .   S
    C56    C64       1.39011  1_554   S
    C82    H18       1.09083      .   S
    C82    C90       1.40833      .   S
    C82    C74       1.39009  1_554   S
    C59    H7        1.09086      .   S
    C59    C91       1.40819      .   S
    C59    C67       1.39009  1_554   S
    C81    H17       1.09085      .   S
    C81    C89       1.40819      .   S
    C81    C73       1.39011  1_554   S
    C57    H5        1.09086      .   S
    C57    C89       1.40829      .   S
    C57    C65       1.39033  1_554   S
    C83    H19       1.09085      .   S
    C83    C91       1.40828      .   S
    C83    C75       1.39032  1_554   S
    C88    C84       1.47176      .   S
    C90    C86       1.47177      .   S
    C89    C85       1.47173      .   S
    C91    C87       1.47172      .   S
    C84    C76       1.38740      .   S
    C84    C52       1.38697      .   S
    C86    C54       1.38740      .   S
    C86    C78       1.38700      .   S
    C85    C53       1.38709      .   S
    C85    C77       1.38723      .   S
    C87    C79       1.38710      .   S
    C87    C55       1.38723      .   S
    C54    N150      1.18046      .   S
    C76    N160      1.18045      .   S
    C53    N149      1.18043      .   S
    C79    N163      1.18042      .   S
    C78    N162      1.18049      .   S
    C52    N148      1.18049      .   S
    C55    N151      1.18048      .   S
    C77    N161      1.18048      .   S
    N150   Zn3       2.15319  1_554   S
    N160   Zn3       2.15334  1_554   S
    N149   Zn0       2.14935  1_564   S
    N163   Zn0       2.14951  1_664   S
    H48    C144      1.08846  1_455   S
    H49    C145      1.08846  1_455   S
    H50    C146      1.08849      .   S
    H51    C147      1.08849      .   S
    N168   C144      1.34480  1_455   S
    N168   C124      1.34658  1_455   S
    N168   Zn0       2.18601  1_554   S
    N171   C147      1.34486      .   S
    N171   C127      1.34663      .   S
    N171   Zn3       2.18207  1_554   S
    N169   C145      1.34484  1_455   S
    N169   C125      1.34655  1_455   S
    N170   C146      1.34490      .   S
    N170   C126      1.34662      .   S
    C144   C140      1.38693  1_655   S
    C145   C141      1.38701  1_655   S
    C146   C142      1.38695      .   S
    C147   C143      1.38686      .   S
    H39    C127      1.08996      .   S
    H36    C124      1.08999  1_455   S
    H37    C125      1.08974  1_455   S
    H38    C126      1.09001      .   S
    C124   C128      1.38785  1_655   S
    C127   C131      1.38779      .   S
    C125   C129      1.38003  1_655   S
    C126   C130      1.38796      .   S
    H44    C140      1.08853      .   S
    H45    C141      1.08852      .   S
    H46    C142      1.08850      .   S
    H47    C143      1.08850      .   S
    C140   C132      1.40941  1_455   S
    C141   C133      1.40951  1_455   S
    C142   C134      1.40955      .   S
    C143   C135      1.40946      .   S
    C129   C133      1.40698  1_455   S
    C129   H41       1.09982  1_455   S
    C128   C132      1.41007  1_455   S
    C128   H40       1.08794      .   S
    C131   C135      1.41002      .   S
    C131   H43       1.08873      .   S
    C130   C134      1.41017      .   S
    C130   H42       1.08875      .   S
    C132   C136      1.41519      .   S
    C133   C137      1.41554  1_655   S
    C135   C139      1.41522      .   S
    C134   C138      1.41551      .   S
    C136   C112      1.21949  1_655   S
    C137   C113      1.21960  1_455   S
    C138   C114      1.21967      .   S
    C139   C115      1.21950      .   S
    C112   C108      1.41520      .   S
    C113   C109      1.41552  1_655   S
    C114   C110      1.41552      .   S
    C115   C111      1.41175      .   S
    H25    C105      1.08913  1_455   S
    H26    C106      1.08871      .   S
    H24    C104      1.08778      .   S
    H27    C107      1.08867      .   S
    C109   C105      1.41015  1_455   S
    C109   C117      1.40955  1_455   S
    C108   C104      1.41029      .   S
    C108   C116      1.40947      .   S
    C111   C107      1.40870      .   S
    C111   C119      1.41438      .   S
    C110   C106      1.41011      .   S
    C110   C118      1.40954      .   S
    C105   C101      1.38797  1_655   S
    C106   C102      1.38803      .   S
    C104   C100      1.38850      .   S
    C107   C103      1.38785      .   S
    C116   H28       1.08852      .   S
    C116   C120      1.38683      .   S
    C117   H29       1.08850  1_655   S
    C117   C121      1.38695  1_655   S
    C118   H30       1.08850      .   S
    C118   C122      1.38699      .   S
    C119   H31       1.08851      .   S
    C119   C123      1.38693      .   S
    C101   H21       1.08999  1_455   S
    C101   N165      1.34662  1_455   S
    C102   H22       1.09181      .   S
    C102   N166      1.34557      .   S
    C100   H20       1.08996      .   S
    C100   N164      1.34665      .   S
    C103   H23       1.09005      .   S
    C103   N167      1.34656      .   S
    C121   N165      1.34490  1_455   S
    C121   H33       1.08849  1_455   S
    C120   N164      1.34487      .   S
    C120   H32       1.08851      .   S
    C122   N166      1.34511      .   S
    C122   H34       1.08849      .   S
    C123   N167      1.34484      .   S
    C123   H35       1.08845      .   S
    N165   Zn0       2.18749  1_665   S
    N166   Zn3       2.19126      .   S
    N155   C63       1.18048      .   S
    N155   Zn3       2.14592      .   S
    N158   C70       1.18047      .   S
    N158   Zn0       2.14948  1_655   S
    N152   C60       1.18047      .   S
    N152   Zn0       2.14942      .   S
    N157   C69       1.18047      .   S
    N157   Zn3       2.14586      .   S
    N156   C68       1.18041      .   S
    N154   C62       1.18042      .   S
    N153   C61       1.18046      .   S
    N159   C71       1.18046      .   S
    C70    C94       1.38722      .   S
    C60    C92       1.38723      .   S
    C63    C95       1.38702      .   S
    C69    C93       1.38699      .   S
    C68    C92       1.38708      .   S
    C62    C94       1.38709      .   S
    C61    C93       1.38739      .   S
    C71    C95       1.38747      .   S
    C92    C96       1.47173      .   S
    C94    C98       1.47173      .   S
    C95    C99       1.47175      .   S
    C93    C97       1.47186      .   S
    C96    C72       1.40829      .   S
    C96    C64       1.40819      .   S
    C98    C66       1.40828      .   S
    C98    C74       1.40819      .   S
    C97    C73       1.40828      .   S
    C97    C65       1.40815      .   S
    C99    C67       1.40830      .   S
    C99    C75       1.40817      .   S
    H10    C66       1.09086      .   S
    H12    C72       1.09085      .   S
    H11    C67       1.09084      .   S
    H13    C73       1.09083      .   S
    H8     C64       1.09085      .   S
    H14    C74       1.09086      .   S
    H9     C65       1.09088      .   S
    H15    C75       1.09087      .   S
