# CIF file generated by openbabel 2.4.90, see http://openbabel.sf.net
data_I
_chemical_name_common ''
_cell_length_a 14.721
_cell_length_b 20.476
_cell_length_c 13.142
_cell_angle_alpha 89.99
_cell_angle_beta 89.928
_cell_angle_gamma 99.094
_space_group_name_H-M_alt 'P 1'
_space_group_name_Hall 'P 1'
loop_
    _symmetry_equiv_pos_as_xyz
    x,y,z
loop_
    _atom_site_label
    _atom_site_type_symbol
    _atom_site_fract_x
    _atom_site_fract_y
    _atom_site_fract_z
    _atom_site_occupancy
    C0      C    0.07668   0.13885   0.91782   1.000
    C1      C    0.07668   0.63886   0.91782   1.000
    C2      C    0.57667   0.13885   0.91782   1.000
    C3      C    0.57667   0.63886   0.91782   1.000
    C4      C    0.42311   0.11119   0.41780   1.000
    C5      C    0.42311   0.61120   0.41788   1.000
    C6      C    0.92310   0.11119   0.41780   1.000
    C7      C    0.92310   0.61120   0.41780   1.000
    C8      C    0.42331   0.36116   0.08217   1.000
    C9      C    0.42331   0.86117   0.08217   1.000
    C10     C    0.92329   0.36116   0.08217   1.000
    C11     C    0.92330   0.86117   0.08217   1.000
    C12     C    0.07688   0.38882   0.58211   1.000
    C13     C    0.07688   0.88883   0.58211   1.000
    C14     C    0.57686   0.38882   0.58211   1.000
    C15     C    0.57687   0.88884   0.58211   1.000
    C16     C    0.39367   0.04078   0.06651   1.000
    C17     C    0.39367   0.54080   0.06651   1.000
    C18     C    0.89366   0.04078   0.06651   1.000
    C19     C    0.89366   0.54080   0.06651   1.000
    C20     C    0.10637   0.20918   0.56529   1.000
    C21     C    0.10638   0.70919   0.56529   1.000
    C22     C    0.60636   0.20918   0.56529   1.000
    C23     C    0.60636   0.70919   0.56529   1.000
    C24     C    0.10632   0.45923   0.93348   1.000
    C25     C    0.10632   0.95924   0.93348   1.000
    C26     C    0.60630   0.45923   0.93348   1.000
    C27     C    0.60631   0.95924   0.93348   1.000
    C28     C    0.39361   0.29083   0.43470   1.000
    C29     C    0.39362   0.79084   0.43470   1.000
    C30     C    0.89360   0.29083   0.43470   1.000
    C31     C    0.89360   0.79084   0.43470   1.000
    C32     C    0.28596   0.10546   0.05815   1.000
    C33     C    0.28596   0.60547   0.05815   1.000
    C34     C    0.78594   0.10546   0.05815   1.000
    C35     C    0.78595   0.60547   0.05815   1.000
    C36     C    0.45989   0.99287   0.26680   1.000
    C37     C    0.45990   0.49288   0.26680   1.000
    C38     C    0.95988   0.99287   0.26680   1.000
    C39     C    0.95988   0.49288   0.26680   1.000
    C40     C    0.04442   0.04741   0.14252   1.000
    C41     C    0.04443   0.54742   0.14252   1.000
    C42     C    0.54441   0.04741   0.14252   1.000
    C43     C    0.54441   0.54742   0.14252   1.000
    C44     C    0.21407   0.14450   0.55645   1.000
    C45     C    0.21407   0.64451   0.55645   1.000
    C46     C    0.71405   0.14450   0.55645   1.000
    C47     C    0.71406   0.64451   0.55645   1.000
    C48     C    0.04026   0.25713   0.76619   1.000
    C49     C    0.04027   0.75714   0.76619   1.000
    C50     C    0.54025   0.25713   0.76619   1.000
    C51     C    0.54026   0.75714   0.76619   1.000
    C52     C    0.45585   0.20277   0.64213   1.000
    C53     C    0.45586   0.70278   0.64213   1.000
    C54     C    0.95584   0.20277   0.64213   1.000
    C55     C    0.95584   0.70278   0.64213   1.000
    C56     C    0.21403   0.39455   0.94184   1.000
    C57     C    0.21403   0.89456   0.94184   1.000
    C58     C    0.71402   0.39455   0.94184   1.000
    C59     C    0.71402   0.89456   0.94184   1.000
    C60     C    0.04009   0.50714   0.73317   1.000
    C61     C    0.04010   0.00000   0.73317   1.000
    C62     C    0.54008   0.50714   0.73317   1.000
    C63     C    0.54008   0.00000   0.73317   1.000
    C64     C    0.45556   0.45260   0.85747   1.000
    C65     C    0.45557   0.95261   0.85747   1.000
    C66     C    0.95555   0.45260   0.85747   1.000
    C67     C    0.95556   0.95261   0.85747   1.000
    C68     C    0.28592   0.35551   0.44354   1.000
    C69     C    0.28592   0.85552   0.44354   1.000
    C70     C    0.78591   0.35551   0.44354   1.000
    C71     C    0.78591   0.85552   0.44354   1.000
    C72     C    0.45972   0.24288   0.23380   1.000
    C73     C    0.45973   0.74290   0.23380   1.000
    C74     C    0.95971   0.24288   0.23380   1.000
    C75     C    0.95971   0.74290   0.23380   1.000
    C76     C    0.04413   0.29724   0.35780   1.000
    C77     C    0.04414   0.79726   0.35780   1.000
    C78     C    0.54412   0.29724   0.35785   1.000
    C79     C    0.54412   0.79726   0.35785   1.000
    C80     C    0.48199   0.06690   0.16664   1.000
    C81     C    0.48200   0.56691   0.16664   1.000
    C82     C    0.98198   0.06690   0.16664   1.000
    C83     C    0.98198   0.56691   0.16664   1.000
    C84     C    0.50191   0.14171   0.16980   1.000
    C85     C    0.50191   0.64173   0.16980   1.000
    C86     C    0.00000   0.14171   0.16980   1.000
    C87     C    0.00000   0.64173   0.16980   1.000
    C88     C    0.22349   0.27772   0.98170   1.000
    C89     C    0.22349   0.77773   0.98170   1.000
    C90     C    0.72347   0.27772   0.98170   1.000
    C91     C    0.72348   0.77773   0.98170   1.000
    C92     C    0.01821   0.18316   0.66603   1.000
    C93     C    0.01821   0.68317   0.66603   1.000
    C94     C    0.51819   0.18316   0.66603   1.000
    C95     C    0.51820   0.68317   0.66603   1.000
    C96     C    0.99800   0.10837   0.66945   1.000
    C97     C    0.99800   0.60838   0.66945   1.000
    C98     C    0.49798   0.10837   0.66945   1.000
    C99     C    0.49799   0.60839   0.66945   1.000
    C100    C    0.27655   0.47230   0.48181   1.000
    C101    C    0.27656   0.97231   0.48181   1.000
    C102    C    0.77654   0.47230   0.48181   1.000
    C103    C    0.77655   0.97231   0.48181   1.000
    C104    C    0.01799   0.43311   0.83335   1.000
    C105    C    0.01800   0.93312   0.83335   1.000
    C106    C    0.51798   0.43311   0.83335   1.000
    C107    C    0.51799   0.93312   0.83335   1.000
    C108    C    0.99807   0.35830   0.83019   1.000
    C109    C    0.99808   0.85831   0.83019   1.000
    C110    C    0.49806   0.35830   0.83019   1.000
    C111    C    0.49807   0.85831   0.83019   1.000
    C112    C    0.27650   0.22229   0.01826   1.000
    C113    C    0.27650   0.72231   0.01826   1.000
    C114    C    0.77649   0.22229   0.01826   1.000
    C115    C    0.77649   0.72231   0.01826   1.000
    C116    C    0.48178   0.31685   0.33396   1.000
    C117    C    0.48178   0.81687   0.33396   1.000
    C118    C    0.98176   0.31685   0.33396   1.000
    C119    C    0.98177   0.81687   0.33396   1.000
    C120    C    0.50199   0.39164   0.33054   1.000
    C121    C    0.50200   0.89165   0.33054   1.000
    C122    C    0.00000   0.39164   0.33054   1.000
    C123    C    0.00000   0.89165   0.33054   1.000
    C124    C    0.22343   0.02771   0.51818   1.000
    C125    C    0.22344   0.52772   0.51818   1.000
    C126    C    0.72342   0.02771   0.51818   1.000
    C127    C    0.72342   0.52772   0.51818   1.000
    C128    C    0.30511   0.06908   0.10181   1.000
    C129    C    0.30511   0.56909   0.10181   1.000
    C130    C    0.80510   0.06908   0.10181   1.000
    C131    C    0.80510   0.56909   0.10181   1.000
    C132    C    0.43378   0.07238   0.96779   1.000
    C133    C    0.43378   0.57239   0.96779   1.000
    C134    C    0.93376   0.07238   0.96779   1.000
    C135    C    0.93377   0.57239   0.96779   1.000
    C136    C    0.37412   0.46560   0.06999   1.000
    C137    C    0.37412   0.96562   0.06999   1.000
    C138    C    0.87411   0.46560   0.06999   1.000
    C139    C    0.87411   0.96562   0.06999   1.000
    C140    C    0.45331   0.04189   0.26498   1.000
    C141    C    0.45331   0.54190   0.26498   1.000
    C142    C    0.95330   0.04189   0.26498   1.000
    C143    C    0.95330   0.54190   0.26498   1.000
    C144    C    0.04214   0.17261   0.09518   1.000
    C145    C    0.04214   0.67262   0.09518   1.000
    C146    C    0.54213   0.17261   0.09518   1.000
    C147    C    0.54213   0.67262   0.09518   1.000
    C148    C    0.47292   0.16925   0.24853   1.000
    C149    C    0.47293   0.66927   0.24853   1.000
    C150    C    0.97291   0.16925   0.24853   1.000
    C151    C    0.97291   0.66927   0.24853   1.000
    C152    C    0.14814   0.26087   0.93697   1.000
    C153    C    0.14814   0.76089   0.93697   1.000
    C154    C    0.64813   0.26087   0.93697   1.000
    C155    C    0.64813   0.76089   0.93697   1.000
    C156    C    0.26173   0.33712   0.00000   1.000
    C157    C    0.26173   0.83714   0.00000   1.000
    C158    C    0.76172   0.33712   0.00000   1.000
    C159    C    0.76172   0.83714   0.00000   1.000
    C160    C    0.19503   0.18097   0.60008   1.000
    C161    C    0.19503   0.68098   0.60008   1.000
    C162    C    0.69501   0.18097   0.60008   1.000
    C163    C    0.69502   0.68098   0.60008   1.000
    C164    C    0.06622   0.17758   0.46671   1.000
    C165    C    0.06622   0.67760   0.46671   1.000
    C166    C    0.56620   0.17758   0.46671   1.000
    C167    C    0.56621   0.67760   0.46671   1.000
    C168    C    0.12579   0.28437   0.56855   1.000
    C169    C    0.12579   0.78438   0.56855   1.000
    C170    C    0.62577   0.28437   0.56855   1.000
    C171    C    0.62578   0.78438   0.56855   1.000
    C172    C    0.04699   0.20814   0.76432   1.000
    C173    C    0.04699   0.70815   0.76432   1.000
    C174    C    0.54698   0.20814   0.76432   1.000
    C175    C    0.54698   0.70815   0.76432   1.000
    C176    C    0.45734   0.07749   0.59518   1.000
    C177    C    0.45734   0.57751   0.59518   1.000
    C178    C    0.95732   0.07749   0.59518   1.000
    C179    C    0.95733   0.57750   0.59518   1.000
    C180    C    0.02705   0.08080   0.74800   1.000
    C181    C    0.02705   0.58081   0.74800   1.000
    C182    C    0.52703   0.08080   0.74800   1.000
    C183    C    0.52704   0.58081   0.74800   1.000
    C184    C    0.35145   0.48901   0.43591   1.000
    C185    C    0.35146   0.98902   0.43591   1.000
    C186    C    0.85144   0.48901   0.43591   1.000
    C187    C    0.85144   0.98902   0.43591   1.000
    C188    C    0.23870   0.41296   0.50195   1.000
    C189    C    0.23871   0.91297   0.50195   1.000
    C190    C    0.73869   0.41296   0.50195   1.000
    C191    C    0.73870   0.91297   0.50195   1.000
    C192    C    0.19488   0.43093   0.89818   1.000
    C193    C    0.19488   0.93094   0.89818   1.000
    C194    C    0.69486   0.43093   0.89818   1.000
    C195    C    0.69487   0.93094   0.89818   1.000
    C196    C    0.06621   0.42763   0.03220   1.000
    C197    C    0.06621   0.92764   0.03220   1.000
    C198    C    0.56620   0.42763   0.03220   1.000
    C199    C    0.56620   0.92764   0.03220   1.000
    C200    C    0.12587   0.03441   0.92999   1.000
    C201    C    0.12587   0.53442   0.92999   1.000
    C202    C    0.62585   0.03441   0.92999   1.000
    C203    C    0.62586   0.53442   0.92999   1.000
    C204    C    0.04668   0.45812   0.73500   1.000
    C205    C    0.04668   0.95813   0.73500   1.000
    C206    C    0.54666   0.45812   0.73500   1.000
    C207    C    0.54667   0.95813   0.73500   1.000
    C208    C    0.45784   0.32740   0.90480   1.000
    C209    C    0.45785   0.82742   0.90480   1.000
    C210    C    0.95783   0.32740   0.90480   1.000
    C211    C    0.95784   0.82742   0.90480   1.000
    C212    C    0.02706   0.33076   0.75146   1.000
    C213    C    0.02707   0.83077   0.75146   1.000
    C214    C    0.52705   0.33076   0.75146   1.000
    C215    C    0.52706   0.83077   0.75146   1.000
    C216    C    0.35185   0.23914   0.06302   1.000
    C217    C    0.35185   0.73915   0.06302   1.000
    C218    C    0.85183   0.23914   0.06302   1.000
    C219    C    0.85184   0.73915   0.06302   1.000
    C220    C    0.23826   0.16289   0.99947   1.000
    C221    C    0.23826   0.66290   0.99947   1.000
    C222    C    0.73824   0.16289   0.99947   1.000
    C223    C    0.73825   0.66290   0.99947   1.000
    C224    C    0.30496   0.31904   0.39991   1.000
    C225    C    0.30496   0.81906   0.39991   1.000
    C226    C    0.80495   0.31904   0.39991   1.000
    C227    C    0.80495   0.81906   0.39991   1.000
    C228    C    0.43377   0.32243   0.53328   1.000
    C229    C    0.43377   0.82244   0.53328   1.000
    C230    C    0.93376   0.32243   0.53328   1.000
    C231    C    0.93376   0.82244   0.53328   1.000
    C232    C    0.37420   0.21564   0.43144   1.000
    C233    C    0.37420   0.71565   0.43144   1.000
    C234    C    0.87419   0.21564   0.43144   1.000
    C235    C    0.87419   0.71565   0.43144   1.000
    C236    C    0.45299   0.29187   0.23567   1.000
    C237    C    0.45300   0.79188   0.23567   1.000
    C238    C    0.95298   0.29187   0.23567   1.000
    C239    C    0.95299   0.79188   0.23567   1.000
    C240    C    0.04265   0.42252   0.40481   1.000
    C241    C    0.04265   0.92253   0.40481   1.000
    C242    C    0.54264   0.42252   0.40481   1.000
    C243    C    0.54264   0.92253   0.40480   1.000
    C244    C    0.47294   0.41921   0.25190   1.000
    C245    C    0.47295   0.91923   0.25190   1.000
    C246    C    0.97293   0.41922   0.25199   1.000
    C247    C    0.97293   0.91923   0.25199   1.000
    C248    C    0.14853   0.01100   0.56408   1.000
    C249    C    0.14854   0.51101   0.56408   1.000
    C250    C    0.64852   0.01100   0.56408   1.000
    C251    C    0.64853   0.51101   0.56408   1.000
    C252    C    0.26128   0.08705   0.49804   1.000
    C253    C    0.26129   0.58706   0.49804   1.000
    C254    C    0.76127   0.08705   0.49804   1.000
    C255    C    0.76127   0.58706   0.49804   1.000
    O256    O    0.34252   0.34914   0.04109   1.000
    O257    O    0.24261   0.30742   0.99085   1.000
    O258    O    0.34252   0.84915   0.04109   1.000
    O259    O    0.24261   0.80743   0.99085   1.000
    O260    O    0.84250   0.34914   0.04109   1.000
    O261    O    0.74259   0.30742   0.99085   1.000
    O262    O    0.84251   0.84915   0.04109   1.000
    O263    O    0.74260   0.80743   0.99085   1.000
    O264    O    0.81416   0.73073   0.04064   1.000
    O265    O    0.74998   0.75002   0.99998   1.000
    O266    O    0.75737   0.69260   0.00886   1.000
    O267    O    0.31417   0.23071   0.04064   1.000
    O268    O    0.24999   0.25000   0.99998   1.000
    O269    O    0.25738   0.19259   0.00886   1.000
    O270    O    0.31418   0.73073   0.04064   1.000
    O271    O    0.25000   0.75002   0.99998   1.000
    O272    O    0.25738   0.69260   0.00886   1.000
    O273    O    0.81416   0.23072   0.04064   1.000
    O274    O    0.74998   0.25001   0.99998   1.000
    O275    O    0.75736   0.19259   0.00886   1.000
    O276    O    0.49476   0.89441   0.05718   1.000
    O277    O    0.58625   0.94344   0.98284   1.000
    O278    O    0.49475   0.39440   0.05718   1.000
    O279    O    0.58625   0.44343   0.98284   1.000
    O280    O    0.99475   0.89441   0.05718   1.000
    O281    O    0.08627   0.94344   0.98284   1.000
    O282    O    0.99475   0.39440   0.05718   1.000
    O283    O    0.08626   0.44343   0.98284   1.000
    O284    O    0.79552   0.58728   0.07998   1.000
    O285    O    0.79552   0.08727   0.07998   1.000
    O286    O    0.29554   0.58728   0.07998   1.000
    O287    O    0.29553   0.08727   0.07998   1.000
    O288    O    0.88756   0.30015   0.07260   1.000
    O289    O    0.38758   0.80016   0.07260   1.000
    O290    O    0.38758   0.30015   0.07260   1.000
    O291    O    0.88757   0.80016   0.07260   1.000
    O292    O    0.88388   0.50320   0.06825   1.000
    O293    O    0.84938   0.55495   0.08416   1.000
    O294    O    0.93782   0.55386   0.11657   1.000
    O295    O    0.91371   0.55659   0.01715   1.000
    O296    O    0.88388   0.00320   0.06825   1.000
    O297    O    0.84938   0.05493   0.08416   1.000
    O298    O    0.93782   0.05384   0.11657   1.000
    O299    O    0.91371   0.05658   0.01715   1.000
    O300    O    0.38390   0.50320   0.06825   1.000
    O301    O    0.34939   0.55494   0.08416   1.000
    O302    O    0.43784   0.55385   0.11657   1.000
    O303    O    0.41373   0.55659   0.01715   1.000
    O304    O    0.38390   0.00320   0.06825   1.000
    O305    O    0.34939   0.05493   0.08416   1.000
    O306    O    0.43783   0.05384   0.11657   1.000
    O307    O    0.41372   0.05658   0.01715   1.000
    O308    O    0.89870   0.91339   0.07608   1.000
    O309    O    0.39871   0.41338   0.07608   1.000
    O310    O    0.39872   0.91339   0.07608   1.000
    O311    O    0.89870   0.41338   0.07608   1.000
    O312    O    0.94811   0.89020   0.16708   1.000
    O313    O    0.94057   0.84429   0.99348   1.000
    O314    O    0.94811   0.39019   0.16708   1.000
    O315    O    0.94056   0.34428   0.99348   1.000
    O316    O    0.44813   0.89020   0.16703   1.000
    O317    O    0.44058   0.84429   0.99348   1.000
    O318    O    0.44812   0.39019   0.16703   1.000
    O319    O    0.44058   0.34428   0.99348   1.000
    O320    O    0.02107   0.15716   0.13249   1.000
    O321    O    0.05941   0.15573   0.00650   1.000
    O322    O    0.52202   0.65717   0.13249   1.000
    O323    O    0.55940   0.65574   0.00650   1.000
    O324    O    0.02107   0.65717   0.13249   1.000
    O325    O    0.05941   0.65574   0.00650   1.000
    O326    O    0.52202   0.15716   0.13249   1.000
    O327    O    0.55940   0.15573   0.00650   1.000
    O328    O    0.01320   0.05716   0.15458   1.000
    O329    O    0.01320   0.55717   0.15458   1.000
    O330    O    0.51320   0.05715   0.15458   1.000
    O331    O    0.51321   0.55717   0.15458   1.000
    O332    O    0.99099   0.60432   0.16822   1.000
    O333    O    0.96764   0.55441   0.21581   1.000
    O334    O    0.99099   0.10431   0.16822   1.000
    O335    O    0.96764   0.05440   0.21581   1.000
    O336    O    0.49196   0.60432   0.16822   1.000
    O337    O    0.46766   0.55441   0.21581   1.000
    O338    O    0.49195   0.10431   0.16822   1.000
    O339    O    0.46765   0.05440   0.21581   1.000
    O340    O    0.98646   0.15548   0.20916   1.000
    O341    O    0.98646   0.65550   0.20916   1.000
    O342    O    0.48742   0.65550   0.20916   1.000
    O343    O    0.48742   0.15548   0.20916   1.000
    O344    O    0.95635   0.76739   0.23473   1.000
    O345    O    0.95634   0.26738   0.23473   1.000
    O346    O    0.45636   0.76739   0.23473   1.000
    O347    O    0.45636   0.26738   0.23473   1.000
    O348    O    0.96738   0.80437   0.28481   1.000
    O349    O    0.46739   0.30436   0.28481   1.000
    O350    O    0.46739   0.80437   0.28481   1.000
    O351    O    0.96737   0.30436   0.28481   1.000
    O352    O    0.94801   0.64023   0.33316   1.000
    O353    O    0.94800   0.14022   0.33316   1.000
    O354    O    0.44802   0.64023   0.33320   1.000
    O355    O    0.44802   0.14022   0.33316   1.000
    O356    O    0.48747   0.90544   0.29122   1.000
    O357    O    0.48747   0.40543   0.29122   1.000
    O358    O    0.98647   0.90544   0.29126   1.000
    O359    O    0.98646   0.40543   0.29126   1.000
    O360    O    0.45660   0.01738   0.26589   1.000
    O361    O    0.45661   0.51739   0.26589   1.000
    O362    O    0.95659   0.01738   0.26589   1.000
    O363    O    0.95659   0.51739   0.26589   1.000
    O364    O    0.99088   0.35425   0.33225   1.000
    O365    O    0.02132   0.40708   0.36767   1.000
    O366    O    0.49188   0.35425   0.33225   1.000
    O367    O    0.52231   0.40708   0.36767   1.000
    O368    O    0.49189   0.85426   0.33225   1.000
    O369    O    0.52232   0.90709   0.36767   1.000
    O370    O    0.99088   0.85426   0.33225   1.000
    O371    O    0.02133   0.90709   0.36767   1.000
    O372    O    0.51295   0.80706   0.34590   1.000
    O373    O    0.43770   0.80385   0.38433   1.000
    O374    O    0.01295   0.30705   0.34588   1.000
    O375    O    0.93768   0.30384   0.38433   1.000
    O376    O    0.01295   0.80706   0.34588   1.000
    O377    O    0.93769   0.80385   0.38433   1.000
    O378    O    0.51295   0.30705   0.34590   1.000
    O379    O    0.43770   0.30384   0.38433   1.000
    O380    O    0.34929   0.30494   0.41730   1.000
    O381    O    0.29544   0.33728   0.42172   1.000
    O382    O    0.34929   0.80495   0.41730   1.000
    O383    O    0.29544   0.83729   0.42172   1.000
    O384    O    0.84927   0.30494   0.41730   1.000
    O385    O    0.79543   0.33728   0.42172   1.000
    O386    O    0.84928   0.80495   0.41730   1.000
    O387    O    0.79543   0.83729   0.42172   1.000
    O388    O    0.55975   0.90568   0.49345   1.000
    O389    O    0.55975   0.40567   0.49346   1.000
    O390    O    0.05977   0.90568   0.49346   1.000
    O391    O    0.05976   0.40567   0.49346   1.000
    O392    O    0.39865   0.16341   0.42462   1.000
    O393    O    0.38728   0.05011   0.42685   1.000
    O394    O    0.49466   0.14439   0.44226   1.000
    O395    O    0.34219   0.09912   0.45792   1.000
    O396    O    0.44022   0.09434   0.50649   1.000
    O397    O    0.89864   0.16341   0.42462   1.000
    O398    O    0.88727   0.05011   0.42685   1.000
    O399    O    0.99466   0.14439   0.44226   1.000
    O400    O    0.84218   0.09912   0.45792   1.000
    O401    O    0.94021   0.09434   0.50649   1.000
    O402    O    0.89865   0.66343   0.42462   1.000
    O403    O    0.88727   0.55011   0.42685   1.000
    O404    O    0.99466   0.64440   0.44226   1.000
    O405    O    0.84219   0.59913   0.45792   1.000
    O406    O    0.94022   0.59435   0.50649   1.000
    O407    O    0.39866   0.66343   0.42466   1.000
    O408    O    0.38728   0.55011   0.42689   1.000
    O409    O    0.49466   0.64440   0.44229   1.000
    O410    O    0.34220   0.59913   0.45796   1.000
    O411    O    0.44023   0.59435   0.50653   1.000
    O412    O    0.88389   0.25324   0.43307   1.000
    O413    O    0.38391   0.75325   0.43307   1.000
    O414    O    0.38391   0.25324   0.43307   1.000
    O415    O    0.88390   0.75325   0.43307   1.000
    O416    O    0.91368   0.80664   0.48399   1.000
    O417    O    0.91368   0.30663   0.48399   1.000
    O418    O    0.41370   0.80664   0.48399   1.000
    O419    O    0.41369   0.30663   0.48399   1.000
    O420    O    0.81399   0.98067   0.45886   1.000
    O421    O    0.81399   0.48066   0.45886   1.000
    O422    O    0.31401   0.98067   0.45886   1.000
    O423    O    0.31400   0.48066   0.45886   1.000
    O424    O    0.58629   0.69339   0.51600   1.000
    O425    O    0.08629   0.19338   0.51600   1.000
    O426    O    0.08630   0.69339   0.51600   1.000
    O427    O    0.58628   0.19338   0.51600   1.000
    O428    O    0.75762   0.94264   0.49188   1.000
    O429    O    0.74998   0.00001   0.49999   1.000
    O430    O    0.75762   0.44263   0.49188   1.000
    O431    O    0.74998   0.50001   0.49999   1.000
    O432    O    0.25763   0.94264   0.49188   1.000
    O433    O    0.24999   0.00001   0.49999   1.000
    O434    O    0.25763   0.44263   0.49188   1.000
    O435    O    0.24999   0.50001   0.49999   1.000
    O436    O    0.74235   0.55739   0.50811   1.000
    O437    O    0.24236   0.05738   0.50811   1.000
    O438    O    0.24236   0.55739   0.50811   1.000
    O439    O    0.74234   0.05738   0.50811   1.000
    O440    O    0.15779   0.40089   0.54203   1.000
    O441    O    0.15780   0.90090   0.54203   1.000
    O442    O    0.65778   0.40089   0.54203   1.000
    O443    O    0.65778   0.90090   0.54203   1.000
    O444    O    0.68597   0.01935   0.54113   1.000
    O445    O    0.68598   0.51937   0.54113   1.000
    O446    O    0.18599   0.51937   0.54113   1.000
    O447    O    0.18598   0.01935   0.54113   1.000
    O448    O    0.50532   0.35562   0.55769   1.000
    O449    O    0.50532   0.85564   0.55769   1.000
    O450    O    0.00532   0.35562   0.55769   1.000
    O451    O    0.00532   0.85564   0.55769   1.000
    O452    O    0.70454   0.66275   0.57827   1.000
    O453    O    0.70453   0.16273   0.57827   1.000
    O454    O    0.20455   0.66275   0.57827   1.000
    O455    O    0.20455   0.16273   0.57827   1.000
    O456    O    0.11271   0.94992   0.57310   1.000
    O457    O    0.61270   0.44992   0.57310   1.000
    O458    O    0.61270   0.94992   0.57310   1.000
    O459    O    0.11271   0.44992   0.57310   1.000
    O460    O    0.61607   0.74679   0.56692   1.000
    O461    O    0.65069   0.69509   0.58268   1.000
    O462    O    0.56228   0.69618   0.61566   1.000
    O463    O    0.61607   0.24677   0.56692   1.000
    O464    O    0.65069   0.19507   0.58268   1.000
    O465    O    0.56228   0.19617   0.61566   1.000
    O466    O    0.11608   0.74679   0.56692   1.000
    O467    O    0.15070   0.69509   0.58268   1.000
    O468    O    0.06229   0.69618   0.61566   1.000
    O469    O    0.11608   0.24677   0.56692   1.000
    O470    O    0.15070   0.19507   0.58268   1.000
    O471    O    0.06229   0.19617   0.61566   1.000
    O472    O    0.10134   0.83661   0.57533   1.000
    O473    O    0.60132   0.33659   0.57533   1.000
    O474    O    0.60132   0.83661   0.57533   1.000
    O475    O    0.10133   0.33659   0.57533   1.000
    O476    O    0.55196   0.85980   0.66679   1.000
    O477    O    0.55196   0.35979   0.66679   1.000
    O478    O    0.05197   0.85980   0.66679   1.000
    O479    O    0.05197   0.35979   0.66679   1.000
    O480    O    0.97767   0.59294   0.63232   1.000
    O481    O    0.97766   0.09293   0.63232   1.000
    O482    O    0.47766   0.59295   0.63232   1.000
    O483    O    0.47766   0.09293   0.63232   1.000
    O484    O    0.98703   0.69297   0.65408   1.000
    O485    O    0.48702   0.19296   0.65408   1.000
    O486    O    0.48703   0.69297   0.65408   1.000
    O487    O    0.98702   0.19296   0.65408   1.000
    O488    O    0.50809   0.64578   0.66774   1.000
    O489    O    0.53259   0.69566   0.71517   1.000
    O490    O    0.50809   0.14577   0.66774   1.000
    O491    O    0.53259   0.19565   0.71517   1.000
    O492    O    0.00811   0.64578   0.66774   1.000
    O493    O    0.03260   0.69566   0.71517   1.000
    O494    O    0.00810   0.14576   0.66774   1.000
    O495    O    0.03260   0.19565   0.71517   1.000
    O496    O    0.51251   0.59460   0.70872   1.000
    O497    O    0.51251   0.09458   0.70872   1.000
    O498    O    0.01253   0.59460   0.70872   1.000
    O499    O    0.01252   0.09458   0.70872   1.000
    O500    O    0.04339   0.48263   0.73408   1.000
    O501    O    0.04339   0.97906   0.73408   1.000
    O502    O    0.54337   0.48263   0.73408   1.000
    O503    O    0.54338   0.97907   0.73408   1.000
    O504    O    0.03234   0.44561   0.78418   1.000
    O505    O    0.03234   0.94562   0.78418   1.000
    O506    O    0.53232   0.44561   0.78418   1.000
    O507    O    0.53233   0.94563   0.78418   1.000
    O508    O    0.55185   0.60983   0.83291   1.000
    O509    O    0.55185   0.10982   0.83291   1.000
    O510    O    0.05187   0.60983   0.83291   1.000
    O511    O    0.05186   0.10982   0.83291   1.000
    O512    O    0.01257   0.34453   0.79083   1.000
    O513    O    0.01257   0.84454   0.79083   1.000
    O514    O    0.51256   0.34453   0.79083   1.000
    O515    O    0.51256   0.84454   0.79083   1.000
    O516    O    0.04363   0.73265   0.76525   1.000
    O517    O    0.04363   0.23263   0.76525   1.000
    O518    O    0.54361   0.23263   0.76525   1.000
    O519    O    0.54362   0.73265   0.76525   1.000
    O520    O    0.00803   0.39570   0.83177   1.000
    O521    O    0.97795   0.34285   0.86750   1.000
    O522    O    0.00804   0.89571   0.83177   1.000
    O523    O    0.97796   0.84286   0.86750   1.000
    O524    O    0.50802   0.39570   0.83177   1.000
    O525    O    0.47795   0.34285   0.86750   1.000
    O526    O    0.50803   0.89571   0.83177   1.000
    O527    O    0.47796   0.84286   0.86750   1.000
    O528    O    0.48677   0.44286   0.84541   1.000
    O529    O    0.56214   0.44617   0.88342   1.000
    O530    O    0.48678   0.94287   0.84541   1.000
    O531    O    0.56215   0.94618   0.88342   1.000
    O532    O    0.98677   0.44286   0.84541   1.000
    O533    O    0.06215   0.44617   0.88342   1.000
    O534    O    0.98678   0.94287   0.84541   1.000
    O535    O    0.06216   0.94618   0.88342   1.000
    O536    O    0.15060   0.44508   0.91583   1.000
    O537    O    0.20445   0.41274   0.92001   1.000
    O538    O    0.15060   0.94509   0.91583   1.000
    O539    O    0.20446   0.91275   0.92001   1.000
    O540    O    0.65058   0.44508   0.91583   1.000
    O541    O    0.70444   0.41274   0.92001   1.000
    O542    O    0.65059   0.94509   0.91583   1.000
    O543    O    0.70445   0.91275   0.92001   1.000
    O544    O    0.10127   0.08663   0.92390   1.000
    O545    O    0.11241   0.19986   0.92739   1.000
    O546    O    0.00522   0.10561   0.94280   1.000
    O547    O    0.15747   0.15087   0.95864   1.000
    O548    O    0.10128   0.58664   0.92390   1.000
    O549    O    0.11241   0.69987   0.92739   1.000
    O550    O    0.00523   0.60563   0.94280   1.000
    O551    O    0.15747   0.65088   0.95864   1.000
    O552    O    0.60126   0.08663   0.92390   1.000
    O553    O    0.61240   0.19986   0.92739   1.000
    O554    O    0.50522   0.10561   0.94280   1.000
    O555    O    0.65746   0.15087   0.95864   1.000
    O556    O    0.60126   0.58664   0.92390   1.000
    O557    O    0.61240   0.69987   0.92739   1.000
    O558    O    0.50523   0.60563   0.94280   1.000
    O559    O    0.65746   0.65088   0.95864   1.000
    O560    O    0.11609   0.49682   0.93173   1.000
    O561    O    0.61608   0.99682   0.93173   1.000
    O562    O    0.61608   0.49682   0.93173   1.000
    O563    O    0.11609   0.99682   0.93173   1.000
    O564    O    0.18581   0.26929   0.95933   1.000
    O565    O    0.18582   0.76931   0.95933   1.000
    O566    O    0.68580   0.26930   0.95933   1.000
    O567    O    0.68580   0.76931   0.95933   1.000
    O568    O    0.43821   0.07654   0.34139   1.000
    O569    O    0.43821   0.57655   0.34143   1.000
    O570    O    0.93820   0.07654   0.34139   1.000
    O571    O    0.93820   0.57655   0.34139   1.000
    O572    O    0.06184   0.17349   0.84107   1.000
    O573    O    0.06184   0.67351   0.84107   1.000
    O574    O    0.56182   0.17349   0.84107   1.000
    O575    O    0.56183   0.67351   0.84107   1.000
    O576    O    0.06178   0.42347   0.65856   1.000
    O577    O    0.06178   0.92348   0.65856   1.000
    O578    O    0.56176   0.42347   0.65856   1.000
    O579    O    0.56177   0.92348   0.65856   1.000
    O580    O    0.43815   0.32651   0.15892   1.000
    O581    O    0.43815   0.82653   0.15892   1.000
    O582    O    0.93814   0.32652   0.15892   1.000
    O583    O    0.93814   0.82653   0.15892   1.000
loop_
    _geom_bond_atom_site_label_1
    _geom_bond_atom_site_label_2
    _geom_bond_distance
    _geom_bond_site_symmetry_2
    _ccdc_geom_bond_type
    C156   O256      1.29447      .   S
    C8     O256      1.29447      .   S
    C156   O257      0.64001  1_554   S
    C88    O257      0.64001      .   S
    C157   O258      1.29447      .   S
    C9     O258      1.29447      .   S
    C157   O259      0.64001  1_554   S
    C89    O259      0.64001      .   S
    C158   O260      1.29446      .   S
    C10    O260      1.29446      .   S
    C158   O261      0.64002  1_554   S
    C90    O261      0.64002      .   S
    C159   O262      1.29447      .   S
    C11    O262      1.29447      .   S
    C159   O263      0.64002  1_554   S
    C91    O263      0.64002      .   S
    C115   O264      0.62769      .   S
    C219   O264      0.62769      .   S
    C115   O265      0.77595  1_554   S
    C91    O265      0.77595      .   S
    C115   O266      0.64063      .   S
    C223   O266      0.64063  1_556   S
    C112   O267      0.62769      .   S
    C216   O267      0.62769      .   S
    C112   O268      0.77596  1_554   S
    C88    O268      0.77596      .   S
    C112   O269      0.64063      .   S
    C220   O269      0.64063  1_556   S
    C113   O270      0.62769      .   S
    C217   O270      0.62769      .   S
    C113   O271      0.77596  1_554   S
    C89    O271      0.77596      .   S
    C113   O272      0.64063      .   S
    C221   O272      0.64063  1_556   S
    C114   O273      0.62769      .   S
    C218   O273      0.62769      .   S
    C114   O274      0.77594  1_554   S
    C90    O274      0.77594      .   S
    C114   O275      0.64063      .   S
    C222   O275      0.64063  1_556   S
    C199   O276      1.20413      .   S
    C9     O276      1.20413      .   S
    C199   O277      0.76278  1_554   S
    C27    O277      0.76278      .   S
    C198   O278      1.20413      .   S
    C8     O278      1.20413      .   S
    C198   O279      0.76278  1_554   S
    C26    O279      0.76278      .   S
    C197   O280      1.20427  1_455   S
    C11    O280      1.20427      .   S
    C197   O281      0.76278  1_554   S
    C25    O281      0.76278      .   S
    C196   O282      1.20428  1_455   S
    C10    O282      1.20428      .   S
    C196   O283      0.76278  1_554   S
    C24    O283      0.76278      .   S
    C35    O284      0.50751      .   S
    C131   O284      0.50751      .   S
    C34    O285      0.50751      .   S
    C130   O285      0.50751      .   S
    C33    O286      0.50751      .   S
    C129   O286      0.50751      .   S
    C32    O287      0.50750      .   S
    C128   O287      0.50750      .   S
    C218   O288      1.28285      .   S
    C10    O288      1.28285      .   S
    C217   O289      1.28285      .   S
    C9     O289      1.28285      .   S
    C216   O290      1.28285      .   S
    C8     O290      1.28285      .   S
    C219   O291      1.28285      .   S
    C11    O291      1.28285      .   S
    C19    O292      0.76079      .   S
    C138   O292      0.76079      .   S
    C19    O293      0.78867      .   S
    C131   O293      0.78867      .   S
    C19    O294      0.93446      .   S
    C83    O294      0.93446      .   S
    C19    O295      0.76278      .   S
    C135   O295      0.76278  1_556   S
    C18    O296      0.76055      .   S
    C139   O296      0.76055  1_565   S
    C18    O297      0.78868      .   S
    C130   O297      0.78868      .   S
    C18    O298      0.93446      .   S
    C82    O298      0.93446      .   S
    C18    O299      0.76278      .   S
    C134   O299      0.76278  1_556   S
    C17    O300      0.76079      .   S
    C136   O300      0.76079      .   S
    C17    O301      0.78868      .   S
    C129   O301      0.78868      .   S
    C17    O302      0.93446      .   S
    C81    O302      0.93446      .   S
    C17    O303      0.76278      .   S
    C133   O303      0.76278  1_556   S
    C16    O304      0.76055      .   S
    C137   O304      0.76055  1_565   S
    C16    O305      0.78868      .   S
    C128   O305      0.78868      .   S
    C16    O306      0.93446      .   S
    C80    O306      0.93446      .   S
    C16    O307      0.76277      .   S
    C132   O307      0.76277  1_556   S
    C139   O308      1.18460      .   S
    C11    O308      1.18460      .   S
    C136   O309      1.18460      .   S
    C8     O309      1.18460      .   S
    C137   O310      1.18460      .   S
    C9     O310      1.18460      .   S
    C138   O311      1.18460      .   S
    C10    O311      1.18460      .   S
    C11    O312      1.29017      .   S
    C247   O312      1.29017      .   S
    C11    O313      1.25285  1_554   S
    C211   O313      1.25285      .   S
    C10    O314      1.29018      .   S
    C246   O314      1.29018      .   S
    C10    O315      1.25285  1_554   S
    C210   O315      1.25285      .   S
    C9     O316      1.28967      .   S
    C245   O316      1.28967      .   S
    C9     O317      1.25284  1_554   S
    C209   O317      1.25284      .   S
    C8     O318      1.28967      .   S
    C244   O318      1.28967      .   S
    C8     O319      1.25284  1_554   S
    C208   O319      1.25284      .   S
    C144   O320      0.63657      .   S
    C86    O320      0.63657      .   S
    C144   O321      1.25279      .   S
    C0     O321      1.25279  1_556   S
    C147   O322      0.63092      .   S
    C85    O322      0.63092      .   S
    C147   O323      1.25279      .   S
    C3     O323      1.25279  1_556   S
    C145   O324      0.63657      .   S
    C87    O324      0.63657      .   S
    C145   O325      1.25279      .   S
    C1     O325      1.25279  1_556   S
    C146   O326      0.63092      .   S
    C84    O326      0.63092      .   S
    C146   O327      1.25279      .   S
    C2     O327      1.25279  1_556   S
    C40    O328      0.55228      .   S
    C82    O328      0.55228  1_655   S
    C41    O329      0.55228      .   S
    C83    O329      0.55228  1_655   S
    C42    O330      0.55212      .   S
    C80    O330      0.55212      .   S
    C43    O331      0.55213      .   S
    C81    O331      0.55213      .   S
    C83    O332      0.75668      .   S
    C87    O332      0.75668  1_455   S
    C83    O333      0.71429      .   S
    C143   O333      0.71429      .   S
    C82    O334      0.75667      .   S
    C86    O334      0.75667  1_455   S
    C82    O335      0.71430      .   S
    C142   O335      0.71430      .   S
    C81    O336      0.75701      .   S
    C85    O336      0.75701      .   S
    C81    O337      0.71429      .   S
    C141   O337      0.71429      .   S
    C80    O338      0.75702      .   S
    C84    O338      0.75702      .   S
    C80    O339      0.71429      .   S
    C140   O339      0.71429      .   S
    C86    O340      0.63597  1_455   S
    C150   O340      0.63597      .   S
    C87    O341      0.63595  1_455   S
    C151   O341      0.63595      .   S
    C85    O342      0.64145      .   S
    C149   O342      0.64145      .   S
    C84    O343      0.64145      .   S
    C148   O343      0.64145      .   S
    C75    O344      0.51185      .   S
    C239   O344      0.51185      .   S
    C74    O345      0.51185      .   S
    C238   O345      0.51185      .   S
    C73    O346      0.51184      .   S
    C237   O346      0.51184      .   S
    C72    O347      0.51184      .   S
    C236   O347      0.51184      .   S
    C239   O348      0.71464      .   S
    C119   O348      0.71464      .   S
    C236   O349      0.71465      .   S
    C116   O349      0.71465      .   S
    C237   O350      0.71465      .   S
    C117   O350      0.71465      .   S
    C238   O351      0.71464      .   S
    C118   O351      0.71464      .   S
    C151   O352      1.28640      .   S
    C7     O352      1.28640      .   S
    C150   O353      1.28641      .   S
    C6     O353      1.28641      .   S
    C149   O354      1.28686      .   S
    C5     O354      1.28686      .   S
    C148   O355      1.28641      .   S
    C4     O355      1.28641      .   S
    C245   O356      0.64169      .   S
    C121   O356      0.64169      .   S
    C244   O357      0.64168      .   S
    C120   O357      0.64168      .   S
    C247   O358      0.63546      .   S
    C123   O358      0.63546  1_455   S
    C246   O359      0.63547      .   S
    C122   O359      0.63547  1_455   S
    C140   O360      0.51194      .   S
    C36    O360      0.51194  1_565   S
    C141   O361      0.51194      .   S
    C37    O361      0.51194      .   S
    C142   O362      0.51193      .   S
    C38    O362      0.51193  1_565   S
    C143   O363      0.51195      .   S
    C39    O363      0.51195      .   S
    C122   O364      0.75646  1_455   S
    C118   O364      0.75646      .   S
    C122   O365      0.63697      .   S
    C240   O365      0.63697      .   S
    C120   O366      0.75684      .   S
    C116   O366      0.75684      .   S
    C120   O367      0.63099      .   S
    C242   O367      0.63099      .   S
    C121   O368      0.75684      .   S
    C117   O368      0.75684      .   S
    C121   O369      0.63094      .   S
    C243   O369      0.63094      .   S
    C123   O370      0.75645  1_455   S
    C119   O370      0.75645      .   S
    C123   O371      0.63698      .   S
    C241   O371      0.63698      .   S
    C117   O372      0.55209      .   S
    C79    O372      0.55209      .   S
    C117   O373      0.93514      .   S
    C29    O373      0.93514      .   S
    C118   O374      0.55216  1_655   S
    C76    O374      0.55216      .   S
    C118   O375      0.93514      .   S
    C30    O375      0.93514      .   S
    C119   O376      0.55217  1_655   S
    C77    O376      0.55217      .   S
    C119   O377      0.93514      .   S
    C31    O377      0.93514      .   S
    C116   O378      0.55209      .   S
    C78    O378      0.55209      .   S
    C116   O379      0.93514      .   S
    C28    O379      0.93514      .   S
    C224   O380      0.78831      .   S
    C28    O380      0.78831      .   S
    C224   O381      0.50764      .   S
    C68    O381      0.50764      .   S
    C225   O382      0.78831      .   S
    C29    O382      0.78831      .   S
    C225   O383      0.50763      .   S
    C69    O383      0.50763      .   S
    C226   O384      0.78831      .   S
    C30    O384      0.78831      .   S
    C226   O385      0.50763      .   S
    C70    O385      0.50763      .   S
    C227   O386      0.78831      .   S
    C31    O386      0.78831      .   S
    C227   O387      0.50764      .   S
    C71    O387      0.50764      .   S
    C243   O388      1.25220      .   S
    C15    O388      1.25220      .   S
    C242   O389      1.25214      .   S
    C14    O389      1.25214      .   S
    C241   O390      1.25215      .   S
    C13    O390      1.25215      .   S
    C240   O391      1.25215      .   S
    C12    O391      1.25215      .   S
    C4     O392      1.18444      .   S
    C232   O392      1.18444      .   S
    C4     O393      1.28369      .   S
    C185   O393      1.28369  1_565   S
    C4     O394      1.20387      .   S
    C166   O394      1.20387      .   S
    C4     O395      1.28965      .   S
    C252   O395      1.28965      .   S
    C4     O396      1.25263      .   S
    C176   O396      1.25263      .   S
    C6     O397      1.18444      .   S
    C234   O397      1.18444      .   S
    C6     O398      1.28369      .   S
    C187   O398      1.28369  1_565   S
    C6     O399      1.20402      .   S
    C164   O399      1.20402  1_455   S
    C6     O400      1.28965      .   S
    C254   O400      1.28965      .   S
    C6     O401      1.25263      .   S
    C178   O401      1.25263      .   S
    C7     O402      1.18443      .   S
    C235   O402      1.18443      .   S
    C7     O403      1.28394      .   S
    C186   O403      1.28394      .   S
    C7     O404      1.20401      .   S
    C165   O404      1.20401  1_455   S
    C7     O405      1.28964      .   S
    C255   O405      1.28964      .   S
    C7     O406      1.25264      .   S
    C179   O406      1.25264      .   S
    C5     O407      1.18441      .   S
    C233   O407      1.18441      .   S
    C5     O408      1.28388      .   S
    C184   O408      1.28388      .   S
    C5     O409      1.20373      .   S
    C167   O409      1.20373      .   S
    C5     O410      1.28944      .   S
    C253   O410      1.28944      .   S
    C5     O411      1.25214      .   S
    C177   O411      1.25214      .   S
    C234   O412      0.76072      .   S
    C30    O412      0.76072      .   S
    C233   O413      0.76072      .   S
    C29    O413      0.76072      .   S
    C232   O414      0.76072      .   S
    C28    O414      0.76072      .   S
    C235   O415      0.76072      .   S
    C31    O415      0.76072      .   S
    C31    O416      0.76285      .   S
    C231   O416      0.76285      .   S
    C30    O417      0.76285      .   S
    C230   O417      0.76285      .   S
    C29    O418      0.76285      .   S
    C229   O418      0.76285      .   S
    C28    O419      0.76284      .   S
    C228   O419      0.76284      .   S
    C187   O420      0.62762      .   S
    C103   O420      0.62762      .   S
    C186   O421      0.62763      .   S
    C102   O421      0.62763      .   S
    C185   O422      0.62763      .   S
    C101   O422      0.62763      .   S
    C184   O423      0.62762      .   S
    C100   O423      0.62762      .   S
    C167   O424      0.76285      .   S
    C23    O424      0.76285      .   S
    C164   O425      0.76285      .   S
    C20    O425      0.76285      .   S
    C165   O426      0.76285      .   S
    C21    O426      0.76285      .   S
    C166   O427      0.76285      .   S
    C22    O427      0.76285      .   S
    C103   O428      0.64077      .   S
    C191   O428      0.64077      .   S
    C103   O429      0.77566  1_565   S
    C126   O429      0.77566      .   S
    C102   O430      0.64077      .   S
    C190   O430      0.64077      .   S
    C102   O431      0.77581      .   S
    C127   O431      0.77581      .   S
    C101   O432      0.64077      .   S
    C189   O432      0.64077      .   S
    C101   O433      0.77566  1_565   S
    C124   O433      0.77566      .   S
    C100   O434      0.64077      .   S
    C188   O434      0.64077      .   S
    C100   O435      0.77582      .   S
    C125   O435      0.77582      .   S
    C255   O436      0.64077      .   S
    C127   O436      0.64077      .   S
    C252   O437      0.64077      .   S
    C124   O437      0.64077      .   S
    C253   O438      0.64077      .   S
    C125   O438      0.64077      .   S
    C254   O439      0.64077      .   S
    C126   O439      0.64077      .   S
    C188   O440      1.28943      .   S
    C12    O440      1.28943      .   S
    C189   O441      1.28944      .   S
    C13    O441      1.28944      .   S
    C190   O442      1.28943      .   S
    C14    O442      1.28943      .   S
    C191   O443      1.28943      .   S
    C15    O443      1.28943      .   S
    C126   O444      0.62762      .   S
    C250   O444      0.62762      .   S
    C127   O445      0.62763      .   S
    C251   O445      0.62763      .   S
    C125   O446      0.62762      .   S
    C249   O446      0.62762      .   S
    C124   O447      0.62763      .   S
    C248   O447      0.62763      .   S
    C228   O448      1.20373      .   S
    C14    O448      1.20373      .   S
    C229   O449      1.20373      .   S
    C15    O449      1.20373      .   S
    C230   O450      1.20388  1_655   S
    C12    O450      1.20388      .   S
    C231   O451      1.20387  1_655   S
    C13    O451      1.20387      .   S
    C47    O452      0.50764      .   S
    C163   O452      0.50764      .   S
    C46    O453      0.50764      .   S
    C162   O453      0.50764      .   S
    C45    O454      0.50764      .   S
    C161   O454      0.50764      .   S
    C44    O455      0.50764      .   S
    C160   O455      0.50764      .   S
    C248   O456      1.28365  1_545   S
    C13    O456      1.28365      .   S
    C251   O457      1.28389      .   S
    C14    O457      1.28389      .   S
    C250   O458      1.28364  1_545   S
    C15    O458      1.28364      .   S
    C249   O459      1.28389      .   S
    C12    O459      1.28389      .   S
    C23    O460      0.76071      .   S
    C171   O460      0.76071      .   S
    C23    O461      0.78831      .   S
    C163   O461      0.78831      .   S
    C23    O462      0.93514      .   S
    C95    O462      0.93514      .   S
    C22    O463      0.76071      .   S
    C170   O463      0.76071      .   S
    C22    O464      0.78831      .   S
    C162   O464      0.78831      .   S
    C22    O465      0.93515      .   S
    C94    O465      0.93515      .   S
    C21    O466      0.76072      .   S
    C169   O466      0.76072      .   S
    C21    O467      0.78831      .   S
    C161   O467      0.78831      .   S
    C21    O468      0.93514      .   S
    C93    O468      0.93514      .   S
    C20    O469      0.76071      .   S
    C168   O469      0.76071      .   S
    C20    O470      0.78831      .   S
    C160   O470      0.78831      .   S
    C20    O471      0.93515      .   S
    C92    O471      0.93515      .   S
    C169   O472      1.18440      .   S
    C13    O472      1.18440      .   S
    C170   O473      1.18440      .   S
    C14    O473      1.18440      .   S
    C171   O474      1.18441      .   S
    C15    O474      1.18441      .   S
    C168   O475      1.18441      .   S
    C12    O475      1.18441      .   S
    C15    O476      1.28686      .   S
    C215   O476      1.28686      .   S
    C14    O477      1.28686      .   S
    C214   O477      1.28686      .   S
    C13    O478      1.28686      .   S
    C213   O478      1.28686      .   S
    C12    O479      1.28686      .   S
    C212   O479      1.28686      .   S
    C179   O480      0.63106      .   S
    C97    O480      0.63106      .   S
    C178   O481      0.63107      .   S
    C96    O481      0.63107      .   S
    C177   O482      0.63099      .   S
    C99    O482      0.63099      .   S
    C176   O483      0.63099      .   S
    C98    O483      0.63099      .   S
    C55    O484      0.55227      .   S
    C93    O484      0.55227  1_455   S
    C52    O485      0.55211      .   S
    C94    O485      0.55211      .   S
    C53    O486      0.55211      .   S
    C95    O486      0.55211      .   S
    C54    O487      0.55228      .   S
    C92    O487      0.55228  1_455   S
    C95    O488      0.75684      .   S
    C99    O488      0.75684      .   S
    C95    O489      0.71465      .   S
    C175   O489      0.71465      .   S
    C94    O490      0.75684      .   S
    C98    O490      0.75684      .   S
    C94    O491      0.71464      .   S
    C174   O491      0.71464      .   S
    C93    O492      0.75685      .   S
    C97    O492      0.75685  1_655   S
    C93    O493      0.71464      .   S
    C173   O493      0.71464      .   S
    C92    O494      0.75684      .   S
    C96    O494      0.75684  1_655   S
    C92    O495      0.71465      .   S
    C172   O495      0.71465      .   S
    C99    O496      0.64122      .   S
    C183   O496      0.64122      .   S
    C98    O497      0.64122      .   S
    C182   O497      0.64122      .   S
    C97    O498      0.64121  1_655   S
    C181   O498      0.64121      .   S
    C96    O499      0.64121  1_655   S
    C180   O499      0.64121      .   S
    C60    O500      0.51195      .   S
    C204   O500      0.51195      .   S
    C61    O501      0.43910  1_545   S
    C205   O501      0.43910      .   S
    C62    O502      0.51194      .   S
    C206   O502      0.51194      .   S
    C63    O503      0.43909  1_545   S
    C207   O503      0.43909      .   S
    C204   O504      0.71435      .   S
    C104   O504      0.71435      .   S
    C205   O505      0.71435      .   S
    C105   O505      0.71435      .   S
    C206   O506      0.71435      .   S
    C106   O506      0.71435      .   S
    C207   O507      0.71435      .   S
    C107   O507      0.71435      .   S
    C183   O508      1.29018      .   S
    C3     O508      1.29018      .   S
    C182   O509      1.29018      .   S
    C2     O509      1.29018      .   S
    C181   O510      1.29017      .   S
    C1     O510      1.29017      .   S
    C180   O511      1.29017      .   S
    C0     O511      1.29017      .   S
    C212   O512      0.64144      .   S
    C108   O512      0.64144  1_655   S
    C213   O513      0.64145      .   S
    C109   O513      0.64145  1_655   S
    C214   O514      0.64145      .   S
    C110   O514      0.64145      .   S
    C215   O515      0.64145      .   S
    C111   O515      0.64145      .   S
    C173   O516      0.51184      .   S
    C49    O516      0.51184      .   S
    C172   O517      0.51185      .   S
    C48    O517      0.51185      .   S
    C174   O518      0.51184      .   S
    C50    O518      0.51184      .   S
    C175   O519      0.51183      .   S
    C51    O519      0.51183      .   S
    C108   O520      0.75702  1_655   S
    C104   O520      0.75702      .   S
    C108   O521      0.63095      .   S
    C210   O521      0.63095      .   S
    C109   O522      0.75701  1_655   S
    C105   O522      0.75701      .   S
    C109   O523      0.63095      .   S
    C211   O523      0.63095      .   S
    C110   O524      0.75701      .   S
    C106   O524      0.75701      .   S
    C110   O525      0.63088      .   S
    C208   O525      0.63088      .   S
    C111   O526      0.75702      .   S
    C107   O526      0.75702      .   S
    C111   O527      0.63087      .   S
    C209   O527      0.63087      .   S
    C106   O528      0.55211      .   S
    C64    O528      0.55211      .   S
    C106   O529      0.93447      .   S
    C26    O529      0.93447      .   S
    C107   O530      0.55212      .   S
    C65    O530      0.55212      .   S
    C107   O531      0.93446      .   S
    C27    O531      0.93446      .   S
    C104   O532      0.55228  1_455   S
    C66    O532      0.55228      .   S
    C104   O533      0.93446      .   S
    C24    O533      0.93446      .   S
    C105   O534      0.55228  1_455   S
    C67    O534      0.55228      .   S
    C105   O535      0.93446      .   S
    C25    O535      0.93446      .   S
    C192   O536      0.78868      .   S
    C24    O536      0.78868      .   S
    C192   O537      0.50751      .   S
    C56    O537      0.50751      .   S
    C193   O538      0.78868      .   S
    C25    O538      0.78868      .   S
    C193   O539      0.50751      .   S
    C57    O539      0.50751      .   S
    C194   O540      0.78868      .   S
    C26    O540      0.78868      .   S
    C194   O541      0.50751      .   S
    C58    O541      0.50751      .   S
    C195   O542      0.78868      .   S
    C27    O542      0.78868      .   S
    C195   O543      0.50751      .   S
    C59    O543      0.50751      .   S
    C0     O544      1.18460      .   S
    C200   O544      1.18460      .   S
    C0     O545      1.28285      .   S
    C152   O545      1.28285      .   S
    C0     O546      1.20428      .   S
    C134   O546      1.20428  1_655   S
    C0     O547      1.29303      .   S
    C220   O547      1.29303      .   S
    C1     O548      1.18460      .   S
    C201   O548      1.18460      .   S
    C1     O549      1.28285      .   S
    C153   O549      1.28285      .   S
    C1     O550      1.20428      .   S
    C135   O550      1.20428  1_655   S
    C1     O551      1.29303      .   S
    C221   O551      1.29303      .   S
    C2     O552      1.18460      .   S
    C202   O552      1.18460      .   S
    C2     O553      1.28286      .   S
    C154   O553      1.28286      .   S
    C2     O554      1.20414      .   S
    C132   O554      1.20414      .   S
    C2     O555      1.29303      .   S
    C222   O555      1.29303      .   S
    C3     O556      1.18460      .   S
    C203   O556      1.18460      .   S
    C3     O557      1.28286      .   S
    C155   O557      1.28286      .   S
    C3     O558      1.20413      .   S
    C133   O558      1.20413      .   S
    C3     O559      1.29303      .   S
    C223   O559      1.29303      .   S
    C201   O560      0.76079      .   S
    C24    O560      0.76079      .   S
    C202   O561      0.76054  1_545   S
    C27    O561      0.76054      .   S
    C203   O562      0.76078      .   S
    C26    O562      0.76078      .   S
    C200   O563      0.76055  1_545   S
    C25    O563      0.76055      .   S
    C152   O564      0.62760      .   S
    C88    O564      0.62760      .   S
    C153   O565      0.62760      .   S
    C89    O565      0.62760      .   S
    C154   O566      0.62760      .   S
    C90    O566      0.62760      .   S
    C155   O567      0.62759      .   S
    C91    O567      0.62759      .   S
    C140   O568      1.26912      .   S
    C4     O568      1.26912      .   S
    C141   O569      1.26953      .   S
    C5     O569      1.26953      .   S
    C142   O570      1.26911      .   S
    C6     O570      1.26911      .   S
    C143   O571      1.26911      .   S
    C7     O571      1.26911      .   S
    C172   O572      1.27188      .   S
    C0     O572      1.27188      .   S
    C173   O573      1.27188      .   S
    C1     O573      1.27188      .   S
    C174   O574      1.27188      .   S
    C2     O574      1.27188      .   S
    C175   O575      1.27188      .   S
    C3     O575      1.27188      .   S
    C204   O576      1.26948      .   S
    C12    O576      1.26948      .   S
    C205   O577      1.26948      .   S
    C13    O577      1.26948      .   S
    C206   O578      1.26949      .   S
    C14    O578      1.26949      .   S
    C207   O579      1.26948      .   S
    C15    O579      1.26948      .   S
    C236   O580      1.27187      .   S
    C8     O580      1.27187      .   S
    C237   O581      1.27187      .   S
    C9     O581      1.27187      .   S
    C238   O582      1.27188      .   S
    C10    O582      1.27188      .   S
    C239   O583      1.27188      .   S
    C11    O583      1.27188      .   S
