# CIF file generated by openbabel 2.4.90, see http://openbabel.sf.net
data_I
_chemical_name_common ''
_cell_length_a 13.19
_cell_length_b 13.947
_cell_length_c 16.988
_cell_angle_alpha 89.974
_cell_angle_beta 89.987
_cell_angle_gamma 90.126
_space_group_name_H-M_alt 'P 1'
_space_group_name_Hall 'P 1'
loop_
    _symmetry_equiv_pos_as_xyz
    x,y,z
loop_
    _atom_site_label
    _atom_site_type_symbol
    _atom_site_fract_x
    _atom_site_fract_y
    _atom_site_fract_z
    _atom_site_occupancy
    Zr0     Zr   0.47601   0.40859   0.42682   1.000
    Zr1     Zr   0.42577   0.48013   0.09327   1.000
    Zr2     Zr   0.52396   0.09161   0.92687   1.000
    Zr3     Zr   0.57425   0.02004   0.59333   1.000
    Zr4     Zr   0.97756   0.59143   0.07306   1.000
    Zr5     Zr   0.92448   0.51973   0.40670   1.000
    Zr6     Zr   0.02242   0.90860   0.57308   1.000
    Zr7     Zr   0.07545   0.98055   0.90669   1.000
    Zr8     Zr   0.52362   0.59165   0.57316   1.000
    Zr9     Zr   0.57436   0.52038   0.90600   1.000
    Zr10    Zr   0.47604   0.90855   0.07314   1.000
    Zr11    Zr   0.42586   0.98019   0.40672   1.000
    Zr12    Zr   0.02243   0.40862   0.92692   1.000
    Zr13    Zr   0.07532   0.48054   0.59326   1.000
    Zr14    Zr   0.97758   0.09149   0.42690   1.000
    Zr15    Zr   0.92453   0.01961   0.09329   1.000
    N16     N    0.20487   0.51911   0.08069   1.000
    O17     O    0.14037   0.47389   0.02395   1.000
    O18     O    0.27715   0.49980   0.08155   1.000
    O19     O    0.12516   0.53978   0.07209   1.000
    N20     N    0.01712   0.28522   0.50071   1.000
    O21     O    0.00237   0.22449   0.47098   1.000
    O22     O    0.98575   0.37113   0.46234   1.000
    O23     O    0.03353   0.35696   0.52765   1.000
    N24     N    0.55700   0.03506   0.76801   1.000
    O25     O    0.55432   0.04864   0.70330   1.000
    O26     O    0.55491   0.03224   0.82903   1.000
    O27     O    0.53723   0.07565   0.81840   1.000
    N28     N    0.44300   0.96514   0.23205   1.000
    O29     O    0.46277   0.92455   0.18164   1.000
    O30     O    0.44571   0.95156   0.29675   1.000
    O31     O    0.44507   0.96795   0.17102   1.000
    N32     N    0.94308   0.53474   0.23183   1.000
    O33     O    0.96365   0.57529   0.18153   1.000
    O34     O    0.94498   0.54840   0.29661   1.000
    O35     O    0.94592   0.53192   0.17080   1.000
    N36     N    0.01716   0.78517   0.99921   1.000
    O37     O    0.03362   0.85692   0.97228   1.000
    O38     O    0.00236   0.72443   0.02895   1.000
    O39     O    0.98580   0.87106   0.03759   1.000
    N40     N    0.79524   0.48135   0.91798   1.000
    O41     O    0.72298   0.50069   0.91753   1.000
    O42     O    0.87490   0.46052   0.92720   1.000
    O43     O    0.85970   0.52639   0.97536   1.000
    N44     N    0.48369   0.28512   0.00083   1.000
    O45     O    0.49867   0.22448   0.97105   1.000
    O46     O    0.51433   0.37127   0.96221   1.000
    O47     O    0.46727   0.35675   0.02773   1.000
    N48     N    0.98270   0.71498   0.49922   1.000
    O49     O    0.99750   0.77568   0.52896   1.000
    O50     O    0.96626   0.64327   0.47230   1.000
    O51     O    0.01401   0.62909   0.53761   1.000
    N52     N    0.70397   0.98079   0.08129   1.000
    O53     O    0.62407   0.96021   0.07257   1.000
    O54     O    0.64019   0.02618   0.02443   1.000
    O55     O    0.77620   0.00004   0.08201   1.000
    N56     N    0.70390   0.48088   0.41851   1.000
    O57     O    0.64000   0.52630   0.47538   1.000
    O58     O    0.77613   0.50014   0.41785   1.000
    O59     O    0.62400   0.46029   0.42726   1.000
    N60     N    0.51664   0.71537   0.99919   1.000
    O61     O    0.48595   0.62921   0.03760   1.000
    O62     O    0.53303   0.64373   0.97209   1.000
    O63     O    0.50159   0.77591   0.02896   1.000
    N64     N    0.94306   0.03473   0.26813   1.000
    O65     O    0.96364   0.07529   0.31841   1.000
    O66     O    0.94497   0.04837   0.20333   1.000
    O67     O    0.94592   0.03191   0.32917   1.000
    N68     N    0.44294   0.46506   0.26794   1.000
    O69     O    0.44565   0.45149   0.20324   1.000
    O70     O    0.44503   0.46790   0.32897   1.000
    O71     O    0.46273   0.42450   0.31835   1.000
    N72     N    0.48356   0.78496   0.49903   1.000
    O73     O    0.46721   0.85665   0.47215   1.000
    O74     O    0.51417   0.87107   0.53752   1.000
    O75     O    0.49848   0.72437   0.52886   1.000
    N76     N    0.51662   0.21543   0.50093   1.000
    O77     O    0.50160   0.27595   0.47112   1.000
    O78     O    0.53295   0.14368   0.52787   1.000
    O79     O    0.48601   0.12925   0.46250   1.000
    N80     N    0.29561   0.51948   0.58095   1.000
    O81     O    0.37555   0.54006   0.57233   1.000
    O82     O    0.35953   0.47407   0.52418   1.000
    O83     O    0.22347   0.50020   0.58175   1.000
    N84     N    0.05541   0.96534   0.73189   1.000
    O85     O    0.05425   0.95172   0.79668   1.000
    O86     O    0.03331   0.92480   0.68159   1.000
    O87     O    0.05332   0.96816   0.67085   1.000
    N88     N    0.29598   0.01951   0.91706   1.000
    O89     O    0.37590   0.04007   0.92662   1.000
    O90     O    0.22376   0.00023   0.91718   1.000
    O91     O    0.35977   0.97410   0.97476   1.000
    N92     N    0.79513   0.98107   0.58075   1.000
    O93     O    0.87484   0.96036   0.57214   1.000
    O94     O    0.72286   0.00038   0.58161   1.000
    O95     O    0.85965   0.02627   0.52399   1.000
    N96     N    0.98278   0.21495   0.00079   1.000
    O97     O    0.99758   0.27567   0.97104   1.000
    O98     O    0.01414   0.12907   0.96239   1.000
    O99     O    0.96633   0.14321   0.02771   1.000
    N100    N    0.55601   0.53690   0.73214   1.000
    O101    O    0.55446   0.53393   0.67102   1.000
    O102    O    0.53564   0.57675   0.68181   1.000
    O103    O    0.55361   0.54989   0.79672   1.000
    N104    N    0.20495   0.01923   0.41929   1.000
    O105    O    0.27723   0.99991   0.41844   1.000
    O106    O    0.14041   0.97395   0.47603   1.000
    O107    O    0.12522   0.03987   0.42788   1.000
    N108    N    0.05536   0.46530   0.76808   1.000
    O109    O    0.05329   0.46812   0.82913   1.000
    O110    O    0.03329   0.42475   0.81840   1.000
    O111    O    0.05419   0.45169   0.70330   1.000
loop_
    _geom_bond_atom_site_label_1
    _geom_bond_atom_site_label_2
    _geom_bond_distance
    _geom_bond_site_symmetry_2
    _ccdc_geom_bond_type
    N16    O17       1.43149      .   S
    Zr12   O17       2.44176  1_556   S
    N16    O18       0.99136      .   S
    Zr1    O18       1.99009      .   S
    N16    O19       1.10054      .   S
    Zr4    O19       2.07746  1_655   S
    N20    O21       1.00501      .   S
    Zr14   O21       2.02661  1_655   S
    N20    O22       1.42591  1_455   S
    Zr5    O22       2.41820      .   S
    N20    O23       1.12105      .   S
    Zr13   O23       2.12480      .   S
    N24    O25       1.11600      .   S
    Zr3    O25       1.92844      .   S
    N24    O26       1.03781      .   S
    Zr2    O26       1.90191      .   S
    N24    O27       1.05932      .   S
    Zr2    O27       1.86451      .   S
    N28    O29       1.05961      .   S
    Zr10   O29       1.86500      .   S
    N28    O30       1.11587      .   S
    Zr11   O30       1.92842      .   S
    N28    O31       1.03794      .   S
    Zr10   O31       1.90270      .   S
    N32    O33       1.05943      .   S
    Zr4    O33       1.86522      .   S
    N32    O34       1.11734      .   S
    Zr5    O34       1.93108      .   S
    N32    O35       1.03814      .   S
    Zr4    O35       1.90188      .   S
    N36    O37       1.12094      .   S
    Zr7    O37       2.12433      .   S
    N36    O38       1.00481  1_556   S
    Zr4    O38       2.02617  1_655   S
    N36    O39       1.42621  1_456   S
    Zr15   O39       2.41869  1_545   S
    N40    O41       0.99117      .   S
    Zr9    O41       1.98968      .   S
    N40    O42       1.10194      .   S
    Zr12   O42       2.07777  1_455   S
    N40    O43       1.43746      .   S
    Zr4    O43       2.44758  1_554   S
    N44    O45       1.00560  1_554   S
    Zr2    O45       2.02790      .   S
    N44    O46       1.42643  1_554   S
    Zr9    O46       2.41953      .   S
    N44    O47       1.12044      .   S
    Zr1    O47       2.12260      .   S
    N48    O49       1.00495      .   S
    Zr6    O49       2.02606  1_455   S
    N48    O50       1.12075      .   S
    Zr5    O50       2.12412      .   S
    N48    O51       1.42577  1_655   S
    Zr13   O51       2.41787      .   S
    N52    O53       1.10177      .   S
    Zr10   O53       2.07978      .   S
    N52    O54       1.42961  1_565   S
    Zr2    O54       2.43635  1_556   S
    N52    O55       0.98929  1_565   S
    Zr15   O55       1.98414      .   S
    N56    O57       1.43082      .   S
    Zr8    O57       2.43989      .   S
    N56    O58       0.98937      .   S
    Zr5    O58       1.98415      .   S
    N56    O59       1.10172      .   S
    Zr0    O59       2.07951      .   S
    N60    O61       1.42511  1_556   S
    Zr1    O61       2.41626      .   S
    N60    O62       1.12170      .   S
    Zr9    O62       2.12680      .   S
    N60    O63       1.00458  1_556   S
    Zr10   O63       2.02555      .   S
    N64    O65       1.05985      .   S
    Zr14   O65       1.86603      .   S
    N64    O66       1.11730      .   S
    Zr15   O66       1.93091      .   S
    N64    O67       1.03835      .   S
    Zr14   O67       1.90303      .   S
    N68    O69       1.11600      .   S
    Zr1    O69       1.92825      .   S
    N68    O70       1.03782      .   S
    Zr0    O70       1.90132      .   S
    N68    O71       1.05905      .   S
    Zr0    O71       1.86429      .   S
    N72    O73       1.12050      .   S
    Zr11   O73       2.12225      .   S
    N72    O74       1.42526      .   S
    Zr3    O74       2.41638  1_545   S
    N72    O75       1.00496      .   S
    Zr8    O75       2.02590      .   S
    N76    O77       1.00429      .   S
    Zr0    O77       2.02588      .   S
    N76    O78       1.12151      .   S
    Zr3    O78       2.12357      .   S
    N76    O79       1.42556      .   S
    Zr11   O79       2.41756  1_565   S
    N80    O81       1.10185      .   S
    Zr8    O81       2.07998      .   S
    N80    O82       1.42997      .   S
    Zr0    O82       2.43643      .   S
    N80    O83       0.98833      .   S
    Zr13   O83       1.98219      .   S
    N84    O85       1.11690      .   S
    Zr7    O85       1.93210      .   S
    N84    O86       1.06519      .   S
    Zr6    O86       1.86288      .   S
    N84    O87       1.03809      .   S
    Zr6    O87       1.90124      .   S
    N88    O89       1.10381      .   S
    Zr2    O89       2.07960      .   S
    N88    O90       0.98928      .   S
    Zr7    O90       1.98291  1_565   S
    N88    O91       1.43954  1_545   S
    Zr10   O91       2.44672  1_554   S
    N92    O93       1.10068      .   S
    Zr6    O93       2.07773  1_455   S
    N92    O94       0.99123  1_565   S
    Zr3    O94       1.98983      .   S
    N92    O95       1.43112  1_565   S
    Zr14   O95       2.44106      .   S
    N96    O97       1.00470  1_554   S
    Zr12   O97       2.02569  1_455   S
    N96    O98       1.42611  1_654   S
    Zr7    O98       2.41849  1_565   S
    N96    O99       1.12067      .   S
    Zr15   O99       2.12379      .   S
    N100   O101      1.03934      .   S
    Zr8    O101      1.89150      .   S
    N100   O102      1.05478      .   S
    Zr8    O102      1.86408      .   S
    N100   O103      1.11249      .   S
    Zr9    O103      1.92115      .   S
    N104   O105      0.99141  1_545   S
    Zr11   O105      1.99015      .   S
    N104   O106      1.43153  1_545   S
    Zr6    O106      2.44175      .   S
    N104   O107      1.10071      .   S
    Zr14   O107      2.07766  1_655   S
    N108   O109      1.03817      .   S
    Zr12   O109      1.90035      .   S
    N108   O110      1.06486      .   S
    Zr12   O110      1.86258      .   S
    N108   O111      1.11699      .   S
    Zr13   O111      1.93200      .   S
