# CIF file generated by openbabel 2.4.90, see http://openbabel.sf.net
data_I
_chemical_name_common 'VESTA_phase_1'
_cell_length_a 15.885
_cell_length_b 18.338
_cell_length_c 19.602
_cell_angle_alpha 92.926
_cell_angle_beta 114.074
_cell_angle_gamma 82.713
_space_group_name_H-M_alt 'P 1'
_space_group_name_Hall 'P 1'
loop_
    _symmetry_equiv_pos_as_xyz
    x,y,z
loop_
    _atom_site_label
    _atom_site_type_symbol
    _atom_site_fract_x
    _atom_site_fract_y
    _atom_site_fract_z
    _atom_site_occupancy
    Cd0     Cd   0.00004   0.24998   0.25000   1.000
    Cd1     Cd   0.00005   0.24998   0.74998   1.000
    Cd2     Cd   0.00005   0.74996   0.25000   1.000
    Cd3     Cd   0.00005   0.74996   0.74998   1.000
    Cd4     Cd   0.50004   0.24998   0.25000   1.000
    Cd5     Cd   0.50004   0.24998   0.74998   1.000
    Cd6     Cd   0.50004   0.74996   0.25000   1.000
    Cd7     Cd   0.50004   0.74996   0.74998   1.000
    Cd8     Cd   0.25004   0.24997   0.25000   1.000
    Cd9     Cd   0.25004   0.24997   0.74998   1.000
    Cd10    Cd   0.25004   0.74996   0.25000   1.000
    Cd11    Cd   0.25005   0.74996   0.74998   1.000
    Cd12    Cd   0.75003   0.24998   0.24999   1.000
    Cd13    Cd   0.75003   0.24998   0.74998   1.000
    Cd14    Cd   0.75003   0.74996   0.24999   1.000
    Cd15    Cd   0.75004   0.74996   0.74998   1.000
    Cd16    Cd   0.25004   0.99998   0.00000   1.000
    Cd17    Cd   0.25004   0.99998   0.49999   1.000
    Cd18    Cd   0.25005   0.49996   0.00000   1.000
    Cd19    Cd   0.25004   0.49997   0.49999   1.000
    Cd20    Cd   0.75004   0.99998   0.00000   1.000
    Cd21    Cd   0.75003   0.99998   0.49999   1.000
    Cd22    Cd   0.75004   0.49997   0.00000   1.000
    Cd23    Cd   0.75004   0.49997   0.49999   1.000
    H24     H    0.02785   0.11661   0.12018   1.000
    H25     H    0.02786   0.11661   0.62017   1.000
    H26     H    0.02786   0.61660   0.12010   1.000
    H27     H    0.02786   0.61660   0.62017   1.000
    H28     H    0.52785   0.11661   0.12010   1.000
    H29     H    0.52785   0.11661   0.62017   1.000
    H30     H    0.52785   0.61660   0.12010   1.000
    H31     H    0.52785   0.61660   0.62017   1.000
    H32     H    0.46479   0.04724   0.06275   1.000
    H33     H    0.46479   0.04724   0.56273   1.000
    H34     H    0.46479   0.54723   0.06275   1.000
    H35     H    0.46479   0.54723   0.56273   1.000
    H36     H    0.96478   0.04724   0.06270   1.000
    H37     H    0.96478   0.04724   0.56273   1.000
    H38     H    0.96478   0.54723   0.06270   1.000
    H39     H    0.96478   0.54723   0.56273   1.000
    H40     H    0.05553   0.04262   0.23417   1.000
    H41     H    0.05554   0.04262   0.73416   1.000
    H42     H    0.05553   0.54261   0.23417   1.000
    H43     H    0.05554   0.54260   0.73416   1.000
    H44     H    0.55553   0.04262   0.23417   1.000
    H45     H    0.55554   0.04262   0.73416   1.000
    H46     H    0.55553   0.54261   0.23417   1.000
    H47     H    0.55554   0.54260   0.73416   1.000
    H48     H    0.00156   0.47042   0.17614   1.000
    H49     H    0.00157   0.47042   0.67613   1.000
    H50     H    0.00157   0.97041   0.17614   1.000
    H51     H    0.00157   0.97040   0.67613   1.000
    H52     H    0.50156   0.47042   0.17615   1.000
    H53     H    0.50157   0.47042   0.67613   1.000
    H54     H    0.50157   0.97040   0.17615   1.000
    H55     H    0.50157   0.97040   0.67613   1.000
    H56     H    0.09143   0.38355   0.11970   1.000
    H57     H    0.09144   0.38355   0.61960   1.000
    H58     H    0.09143   0.88353   0.11970   1.000
    H59     H    0.09144   0.88353   0.61960   1.000
    H60     H    0.59143   0.38355   0.11970   1.000
    H61     H    0.59143   0.38355   0.61968   1.000
    H62     H    0.59143   0.88354   0.11900   1.000
    H63     H    0.59143   0.88354   0.61968   1.000
    H64     H    0.09702   0.45327   0.06269   1.000
    H65     H    0.09702   0.45327   0.56267   1.000
    H66     H    0.09702   0.95326   0.06269   1.000
    H67     H    0.09703   0.95326   0.56267   1.000
    H68     H    0.59702   0.45328   0.06269   1.000
    H69     H    0.59702   0.45328   0.56267   1.000
    H70     H    0.59702   0.95327   0.06269   1.000
    H71     H    0.59702   0.95326   0.56267   1.000
    H72     H    0.17845   0.45685   0.23412   1.000
    H73     H    0.17845   0.45685   0.73411   1.000
    H74     H    0.17845   0.95684   0.23412   1.000
    H75     H    0.17846   0.95683   0.73411   1.000
    H76     H    0.67845   0.45685   0.23412   1.000
    H77     H    0.67845   0.45685   0.73410   1.000
    H78     H    0.67845   0.95684   0.23412   1.000
    H79     H    0.67846   0.95684   0.73410   1.000
    H80     H    0.17434   0.02939   0.17650   1.000
    H81     H    0.17434   0.02939   0.67640   1.000
    H82     H    0.17434   0.52938   0.17650   1.000
    H83     H    0.17434   0.52938   0.67648   1.000
    H84     H    0.67433   0.02940   0.17650   1.000
    H85     H    0.67434   0.02939   0.67648   1.000
    H86     H    0.67434   0.52938   0.17650   1.000
    H87     H    0.67434   0.52938   0.67648   1.000
    H88     H    0.47222   0.38335   0.37980   1.000
    H89     H    0.47222   0.38335   0.87979   1.000
    H90     H    0.47222   0.88333   0.37980   1.000
    H91     H    0.47223   0.88333   0.87979   1.000
    H92     H    0.97221   0.38335   0.37980   1.000
    H93     H    0.97222   0.38335   0.87979   1.000
    H94     H    0.97222   0.88333   0.37980   1.000
    H95     H    0.97222   0.88333   0.87979   1.000
    H96     H    0.03529   0.45271   0.43725   1.000
    H97     H    0.03529   0.45271   0.93723   1.000
    H98     H    0.03529   0.95270   0.43720   1.000
    H99     H    0.03530   0.95270   0.93723   1.000
    H100    H    0.53528   0.45271   0.43724   1.000
    H101    H    0.53528   0.45271   0.93723   1.000
    H102    H    0.53528   0.95270   0.43724   1.000
    H103    H    0.53529   0.95270   0.93723   1.000
    H104    H    0.44454   0.45734   0.26582   1.000
    H105    H    0.44455   0.45734   0.76580   1.000
    H106    H    0.44454   0.95733   0.26582   1.000
    H107    H    0.44455   0.95733   0.76580   1.000
    H108    H    0.94454   0.45734   0.26582   1.000
    H109    H    0.94455   0.45734   0.76580   1.000
    H110    H    0.94454   0.95733   0.26582   1.000
    H111    H    0.94455   0.95733   0.76580   1.000
    H112    H    0.49851   0.02954   0.32385   1.000
    H113    H    0.49852   0.02954   0.82383   1.000
    H114    H    0.49851   0.52953   0.32385   1.000
    H115    H    0.49852   0.52953   0.82380   1.000
    H116    H    0.99851   0.02954   0.32385   1.000
    H117    H    0.99852   0.02954   0.82384   1.000
    H118    H    0.99851   0.52952   0.32385   1.000
    H119    H    0.99852   0.52952   0.82384   1.000
    H120    H    0.40865   0.11641   0.38030   1.000
    H121    H    0.40865   0.11640   0.88020   1.000
    H122    H    0.40865   0.61639   0.38030   1.000
    H123    H    0.40865   0.61639   0.88028   1.000
    H124    H    0.90864   0.11641   0.38000   1.000
    H125    H    0.90864   0.11641   0.88028   1.000
    H126    H    0.90864   0.61640   0.38029   1.000
    H127    H    0.90865   0.61640   0.88028   1.000
    H128    H    0.40305   0.04668   0.43730   1.000
    H129    H    0.40306   0.04667   0.93729   1.000
    H130    H    0.40306   0.54666   0.43730   1.000
    H131    H    0.40306   0.54666   0.93729   1.000
    H132    H    0.90305   0.04668   0.43730   1.000
    H133    H    0.90306   0.04668   0.93729   1.000
    H134    H    0.90305   0.54667   0.43730   1.000
    H135    H    0.90306   0.54667   0.93729   1.000
    H136    H    0.32163   0.04311   0.26587   1.000
    H137    H    0.32163   0.04311   0.76586   1.000
    H138    H    0.32163   0.54310   0.26587   1.000
    H139    H    0.32163   0.54310   0.76586   1.000
    H140    H    0.82163   0.04311   0.26587   1.000
    H141    H    0.82163   0.04311   0.76585   1.000
    H142    H    0.82163   0.54310   0.26587   1.000
    H143    H    0.82163   0.54310   0.76585   1.000
    H144    H    0.32574   0.47056   0.32349   1.000
    H145    H    0.32574   0.47056   0.82347   1.000
    H146    H    0.32574   0.97055   0.32349   1.000
    H147    H    0.32574   0.97055   0.82347   1.000
    H148    H    0.82573   0.47057   0.32349   1.000
    H149    H    0.82574   0.47057   0.82347   1.000
    H150    H    0.82574   0.97055   0.32349   1.000
    H151    H    0.82574   0.97055   0.82347   1.000
    C152    C    0.40102   0.10534   0.12873   1.000
    C153    C    0.40103   0.10534   0.62872   1.000
    C154    C    0.40102   0.60533   0.12873   1.000
    C155    C    0.40103   0.60533   0.62872   1.000
    C156    C    0.90101   0.10534   0.12873   1.000
    C157    C    0.90101   0.10534   0.62871   1.000
    C158    C    0.90101   0.60533   0.12873   1.000
    C159    C    0.90102   0.60533   0.62871   1.000
    C160    C    0.48584   0.07267   0.11840   1.000
    C161    C    0.48584   0.07267   0.61845   1.000
    C162    C    0.48584   0.57266   0.11840   1.000
    C163    C    0.48584   0.57265   0.61845   1.000
    C164    C    0.98582   0.07267   0.11846   1.000
    C165    C    0.98583   0.07267   0.61845   1.000
    C166    C    0.98583   0.57266   0.11846   1.000
    C167    C    0.98583   0.57265   0.61845   1.000
    C168    C    0.04298   0.01553   0.18014   1.000
    C169    C    0.04298   0.01553   0.68012   1.000
    C170    C    0.04298   0.51552   0.18014   1.000
    C171    C    0.04298   0.51552   0.68012   1.000
    C172    C    0.54298   0.01553   0.18014   1.000
    C173    C    0.54298   0.01553   0.68012   1.000
    C174    C    0.54298   0.51552   0.18014   1.000
    C175    C    0.54298   0.51552   0.68012   1.000
    C176    C    0.22702   0.39475   0.12859   1.000
    C177    C    0.22702   0.39475   0.62858   1.000
    C178    C    0.22702   0.89474   0.12859   1.000
    C179    C    0.22702   0.89474   0.62858   1.000
    C180    C    0.72701   0.39475   0.12859   1.000
    C181    C    0.72702   0.39475   0.62858   1.000
    C182    C    0.72701   0.89474   0.12859   1.000
    C183    C    0.72702   0.89474   0.62858   1.000
    C184    C    0.13187   0.42750   0.11829   1.000
    C185    C    0.13187   0.42750   0.61820   1.000
    C186    C    0.13187   0.92749   0.11829   1.000
    C187    C    0.13187   0.92749   0.61820   1.000
    C188    C    0.63186   0.42751   0.11829   1.000
    C189    C    0.63187   0.42750   0.61827   1.000
    C190    C    0.63187   0.92749   0.11829   1.000
    C191    C    0.63187   0.92749   0.61827   1.000
    C192    C    0.13678   0.48426   0.18019   1.000
    C193    C    0.13678   0.48426   0.68017   1.000
    C194    C    0.13678   0.98425   0.18019   1.000
    C195    C    0.13678   0.98425   0.68017   1.000
    C196    C    0.63678   0.48426   0.18018   1.000
    C197    C    0.63678   0.48426   0.68017   1.000
    C198    C    0.63678   0.98425   0.18018   1.000
    C199    C    0.63678   0.98425   0.68017   1.000
    C200    C    0.09906   0.39461   0.37126   1.000
    C201    C    0.09906   0.39461   0.87125   1.000
    C202    C    0.09906   0.89460   0.37126   1.000
    C203    C    0.09907   0.89460   0.87125   1.000
    C204    C    0.59905   0.39461   0.37126   1.000
    C205    C    0.59905   0.39461   0.87125   1.000
    C206    C    0.59905   0.89460   0.37126   1.000
    C207    C    0.59906   0.89460   0.87125   1.000
    C208    C    0.01424   0.42729   0.38153   1.000
    C209    C    0.01425   0.42729   0.88151   1.000
    C210    C    0.01425   0.92727   0.38153   1.000
    C211    C    0.01425   0.92727   0.88151   1.000
    C212    C    0.51423   0.42729   0.38150   1.000
    C213    C    0.51424   0.42729   0.88151   1.000
    C214    C    0.51424   0.92727   0.38150   1.000
    C215    C    0.51424   0.92727   0.88151   1.000
    C216    C    0.45710   0.48443   0.31980   1.000
    C217    C    0.45710   0.48443   0.81984   1.000
    C218    C    0.45710   0.98441   0.31985   1.000
    C219    C    0.45710   0.98441   0.81984   1.000
    C220    C    0.95710   0.48443   0.31986   1.000
    C221    C    0.95710   0.48443   0.81984   1.000
    C222    C    0.95710   0.98441   0.31980   1.000
    C223    C    0.95710   0.98441   0.81984   1.000
    C224    C    0.27306   0.10520   0.37140   1.000
    C225    C    0.27306   0.10520   0.87139   1.000
    C226    C    0.27306   0.60519   0.37140   1.000
    C227    C    0.27307   0.60519   0.87139   1.000
    C228    C    0.77306   0.10521   0.37140   1.000
    C229    C    0.77306   0.10520   0.87138   1.000
    C230    C    0.77306   0.60519   0.37140   1.000
    C231    C    0.77306   0.60519   0.87138   1.000
    C232    C    0.36821   0.07245   0.38170   1.000
    C233    C    0.36821   0.07245   0.88169   1.000
    C234    C    0.36821   0.57244   0.38170   1.000
    C235    C    0.36821   0.57244   0.88169   1.000
    C236    C    0.86820   0.07245   0.38170   1.000
    C237    C    0.86821   0.07245   0.88169   1.000
    C238    C    0.86821   0.57244   0.38170   1.000
    C239    C    0.86821   0.57244   0.88169   1.000
    C240    C    0.36330   0.01570   0.31981   1.000
    C241    C    0.36330   0.01569   0.81979   1.000
    C242    C    0.36330   0.51568   0.31981   1.000
    C243    C    0.36330   0.51568   0.81979   1.000
    C244    C    0.86329   0.01570   0.31980   1.000
    C245    C    0.86330   0.01570   0.81979   1.000
    C246    C    0.86330   0.51569   0.31980   1.000
    C247    C    0.86330   0.51568   0.81979   1.000
    N248    N    0.30977   0.16461   0.17436   1.000
    N249    N    0.30977   0.16461   0.67435   1.000
    N250    N    0.30977   0.66460   0.17436   1.000
    N251    N    0.30977   0.66460   0.67435   1.000
    N252    N    0.80976   0.16462   0.17436   1.000
    N253    N    0.80976   0.16462   0.67435   1.000
    N254    N    0.80976   0.66460   0.17436   1.000
    N255    N    0.80976   0.66460   0.67435   1.000
    N256    N    0.25975   0.12039   0.12292   1.000
    N257    N    0.25975   0.12040   0.62291   1.000
    N258    N    0.25975   0.62038   0.12292   1.000
    N259    N    0.25975   0.62038   0.62291   1.000
    N260    N    0.75974   0.12040   0.12292   1.000
    N261    N    0.75974   0.12040   0.62290   1.000
    N262    N    0.75974   0.62039   0.12292   1.000
    N263    N    0.75974   0.62039   0.62290   1.000
    N264    N    0.31604   0.08272   0.09342   1.000
    N265    N    0.31604   0.08272   0.59341   1.000
    N266    N    0.31604   0.58270   0.09342   1.000
    N267    N    0.31604   0.58270   0.59341   1.000
    N268    N    0.81603   0.08272   0.09342   1.000
    N269    N    0.81603   0.08272   0.59340   1.000
    N270    N    0.81603   0.58271   0.09340   1.000
    N271    N    0.81603   0.58271   0.59340   1.000
    N272    N    0.39842   0.15670   0.17946   1.000
    N273    N    0.39842   0.15670   0.67940   1.000
    N274    N    0.39842   0.65668   0.17946   1.000
    N275    N    0.39842   0.65668   0.67940   1.000
    N276    N    0.89841   0.15670   0.17940   1.000
    N277    N    0.89841   0.15670   0.67944   1.000
    N278    N    0.89841   0.65669   0.17946   1.000
    N279    N    0.89841   0.65669   0.67944   1.000
    N280    N    0.36420   0.33533   0.17438   1.000
    N281    N    0.36420   0.33533   0.67436   1.000
    N282    N    0.36420   0.83531   0.17438   1.000
    N283    N    0.36420   0.83531   0.67436   1.000
    N284    N    0.86419   0.33533   0.17430   1.000
    N285    N    0.86419   0.33533   0.67436   1.000
    N286    N    0.86419   0.83531   0.17437   1.000
    N287    N    0.86420   0.83531   0.67436   1.000
    N288    N    0.36248   0.37953   0.12290   1.000
    N289    N    0.36249   0.37953   0.62288   1.000
    N290    N    0.36249   0.87952   0.12290   1.000
    N291    N    0.36249   0.87952   0.62288   1.000
    N292    N    0.86248   0.37953   0.12289   1.000
    N293    N    0.86248   0.37954   0.62288   1.000
    N294    N    0.86248   0.87952   0.12200   1.000
    N295    N    0.86249   0.87952   0.62288   1.000
    N296    N    0.27653   0.41732   0.09331   1.000
    N297    N    0.27654   0.41732   0.59329   1.000
    N298    N    0.27653   0.91731   0.09331   1.000
    N299    N    0.27654   0.91731   0.59329   1.000
    N300    N    0.77653   0.41732   0.09330   1.000
    N301    N    0.77653   0.41732   0.59329   1.000
    N302    N    0.77653   0.91731   0.09330   1.000
    N303    N    0.77653   0.91731   0.59329   1.000
    N304    N    0.28065   0.34336   0.17941   1.000
    N305    N    0.28065   0.34336   0.67940   1.000
    N306    N    0.28065   0.84335   0.17940   1.000
    N307    N    0.28065   0.84335   0.67940   1.000
    N308    N    0.78064   0.34337   0.17941   1.000
    N309    N    0.78065   0.34336   0.67940   1.000
    N310    N    0.78065   0.84335   0.17941   1.000
    N311    N    0.78065   0.84335   0.67940   1.000
    N312    N    0.19031   0.33534   0.32563   1.000
    N313    N    0.19032   0.33534   0.82562   1.000
    N314    N    0.19031   0.83532   0.32563   1.000
    N315    N    0.19032   0.83532   0.82562   1.000
    N316    N    0.69030   0.33534   0.32563   1.000
    N317    N    0.69031   0.33534   0.82560   1.000
    N318    N    0.69030   0.83533   0.32563   1.000
    N319    N    0.69031   0.83533   0.82561   1.000
    N320    N    0.24033   0.37956   0.37707   1.000
    N321    N    0.24034   0.37956   0.87706   1.000
    N322    N    0.24034   0.87954   0.37707   1.000
    N323    N    0.24034   0.87954   0.87706   1.000
    N324    N    0.74032   0.37956   0.37707   1.000
    N325    N    0.74033   0.37956   0.87705   1.000
    N326    N    0.74032   0.87955   0.37707   1.000
    N327    N    0.74033   0.87955   0.87705   1.000
    N328    N    0.18405   0.41723   0.40657   1.000
    N329    N    0.18405   0.41723   0.90656   1.000
    N330    N    0.18405   0.91722   0.40657   1.000
    N331    N    0.18405   0.91722   0.90656   1.000
    N332    N    0.68403   0.41724   0.40657   1.000
    N333    N    0.68404   0.41724   0.90656   1.000
    N334    N    0.68404   0.91722   0.40657   1.000
    N335    N    0.68404   0.91723   0.90650   1.000
    N336    N    0.10166   0.34325   0.32054   1.000
    N337    N    0.10167   0.34325   0.82052   1.000
    N338    N    0.10167   0.84324   0.32050   1.000
    N339    N    0.10167   0.84324   0.82052   1.000
    N340    N    0.60165   0.34325   0.32053   1.000
    N341    N    0.60166   0.34325   0.82052   1.000
    N342    N    0.60166   0.84324   0.32053   1.000
    N343    N    0.60166   0.84324   0.82052   1.000
    N344    N    0.13588   0.16462   0.32562   1.000
    N345    N    0.13588   0.16462   0.82561   1.000
    N346    N    0.13588   0.66461   0.32562   1.000
    N347    N    0.13589   0.66461   0.82561   1.000
    N348    N    0.63587   0.16463   0.32562   1.000
    N349    N    0.63588   0.16463   0.82560   1.000
    N350    N    0.63588   0.66461   0.32562   1.000
    N351    N    0.63588   0.66461   0.82560   1.000
    N352    N    0.13759   0.12042   0.37710   1.000
    N353    N    0.13760   0.12042   0.87709   1.000
    N354    N    0.13760   0.62040   0.37710   1.000
    N355    N    0.13760   0.62041   0.87709   1.000
    N356    N    0.63759   0.12042   0.37710   1.000
    N357    N    0.63760   0.12042   0.87709   1.000
    N358    N    0.63759   0.62040   0.37710   1.000
    N359    N    0.63760   0.62041   0.87709   1.000
    N360    N    0.22355   0.08263   0.40669   1.000
    N361    N    0.22355   0.08263   0.90668   1.000
    N362    N    0.22355   0.58262   0.40669   1.000
    N363    N    0.22355   0.58262   0.90668   1.000
    N364    N    0.72354   0.08263   0.40669   1.000
    N365    N    0.72355   0.08263   0.90660   1.000
    N366    N    0.72355   0.58262   0.40669   1.000
    N367    N    0.72355   0.58262   0.90660   1.000
    N368    N    0.21943   0.15659   0.32058   1.000
    N369    N    0.21943   0.15659   0.82057   1.000
    N370    N    0.21943   0.65657   0.32058   1.000
    N371    N    0.21943   0.65657   0.82057   1.000
    N372    N    0.71942   0.15659   0.32058   1.000
    N373    N    0.71942   0.15659   0.82056   1.000
    N374    N    0.71942   0.65658   0.32058   1.000
    N375    N    0.71943   0.65658   0.82050   1.000
    Cl376   Cl   0.07739   0.25007   0.15529   1.000
    Cl377   Cl   0.07739   0.25007   0.65520   1.000
    Cl378   Cl   0.07739   0.75006   0.15529   1.000
    Cl379   Cl   0.07739   0.75006   0.65527   1.000
    Cl380   Cl   0.57738   0.25007   0.15529   1.000
    Cl381   Cl   0.57738   0.25007   0.65527   1.000
    Cl382   Cl   0.57738   0.75006   0.15529   1.000
    Cl383   Cl   0.57738   0.75006   0.65527   1.000
    Cl384   Cl   0.42269   0.24988   0.34471   1.000
    Cl385   Cl   0.42270   0.24988   0.84469   1.000
    Cl386   Cl   0.42269   0.74987   0.34471   1.000
    Cl387   Cl   0.42270   0.74987   0.84469   1.000
    Cl388   Cl   0.92268   0.24988   0.34470   1.000
    Cl389   Cl   0.92269   0.24988   0.84469   1.000
    Cl390   Cl   0.92268   0.74987   0.34470   1.000
    Cl391   Cl   0.92269   0.74987   0.84469   1.000
loop_
    _geom_bond_atom_site_label_1
    _geom_bond_atom_site_label_2
    _geom_bond_distance
    _geom_bond_site_symmetry_2
    _ccdc_geom_bond_type
    H64    C184      1.10072      .   S
    H66    C186      1.10072      .   S
    H70    C190      1.10074      .   S
    H68    C188      1.10074      .   S
    H38    C166      1.10148      .   S
    H36    C164      1.10148      .   S
    H32    C160      1.09966      .   S
    H34    C162      1.09966      .   S
    N302   N294      1.35424      .   S
    N302   C182      1.35066      .   S
    N302   Cd20      2.30510      .   S
    N300   N292      1.35488      .   S
    N300   C180      1.35066      .   S
    N300   Cd22      2.30477      .   S
    N296   N288      1.35488      .   S
    N296   C176      1.35051      .   S
    N296   Cd18      2.30492      .   S
    N298   N290      1.35488      .   S
    N298   C178      1.35051      .   S
    N298   Cd16      2.30523      .   S
    N270   N262      1.35510      .   S
    N270   C158      1.35065      .   S
    N270   Cd22      2.30371      .   S
    N268   N260      1.35485      .   S
    N268   C156      1.35061      .   S
    N268   Cd20      2.30392  1_545   S
    N266   N258      1.35484      .   S
    N266   C154      1.35061      .   S
    N266   Cd18      2.30393      .   S
    N264   N256      1.35484      .   S
    N264   C152      1.35061      .   S
    N264   Cd16      2.30393  1_545   S
    C188   H60       1.10054      .   S
    C188   C180      1.48964      .   S
    C188   C196      1.54130      .   S
    C184   H56       1.10053      .   S
    C184   C176      1.48965      .   S
    C184   C192      1.54146      .   S
    C186   H58       1.10054      .   S
    C186   C178      1.48965      .   S
    C186   C194      1.54146      .   S
    C190   H62       1.09649      .   S
    C190   C182      1.48965      .   S
    C190   C198      1.54130      .   S
    C162   H30       1.10058      .   S
    C162   C154      1.49016      .   S
    C162   C174      1.54220      .   S
    C160   H28       1.10058      .   S
    C160   C152      1.49015      .   S
    C160   C172      1.54220      .   S
    C166   H26       1.10108  1_655   S
    C166   C158      1.48961      .   S
    C166   C170      1.54156  1_655   S
    C164   H24       1.10067  1_655   S
    C164   C156      1.48959      .   S
    C164   C168      1.54156  1_655   S
    N294   N286      1.32980      .   S
    N292   N284      1.31489      .   S
    N290   N282      1.31599      .   S
    N288   N280      1.31599      .   S
    N256   N248      1.31602      .   S
    N258   N250      1.31602      .   S
    N260   N252      1.31600      .   S
    N262   N254      1.31601      .   S
    C182   N310      1.34383      .   S
    C180   N308      1.34384      .   S
    C178   N306      1.34373      .   S
    C176   N304      1.34383      .   S
    C152   N272      1.34370      .   S
    C158   N278      1.34370      .   S
    C156   N276      1.34287      .   S
    C154   N274      1.34370      .   S
    Cl382  Cd14      2.61023      .   S
    Cl380  Cd12      2.61023      .   S
    Cl378  Cd10      2.61029      .   S
    Cl376  Cd8       2.61028      .   S
    N284   N308      1.36027      .   S
    N284   Cd0       2.46506  1_655   S
    N254   N278      1.35974      .   S
    N254   Cd14      2.46618      .   S
    N252   N276      1.36012      .   S
    N252   Cd12      2.46620      .   S
    N250   N274      1.35972      .   S
    N250   Cd10      2.46634      .   S
    N248   N272      1.35970      .   S
    N248   Cd8       2.46635      .   S
    N286   N310      1.35964      .   S
    N286   Cd2       2.46467  1_655   S
    N282   N306      1.35945      .   S
    N282   Cd6       2.46449      .   S
    N280   N304      1.35954      .   S
    N280   Cd4       2.46449      .   S
    H48    C170      1.10103      .   S
    H50    C168      1.10139  1_565   S
    H54    C172      1.10143  1_565   S
    H52    C174      1.10106      .   S
    H84    C198      1.10135  1_545   S
    H82    C192      1.10105      .   S
    H80    C194      1.10142  1_545   S
    H86    C196      1.10099      .   S
    N276   Cd0       2.46650  1_655   S
    N306   Cd10      2.46715      .   S
    N308   Cd12      2.46690      .   S
    N310   Cd14      2.46691      .   S
    N304   Cd8       2.46700      .   S
    N272   Cd4       2.46609      .   S
    N278   Cd2       2.46621  1_655   S
    N274   Cd6       2.46609      .   S
    C174   C196      1.52678      .   S
    C174   H46       1.09877      .   S
    C172   C198      1.52695  1_545   S
    C172   H44       1.09877      .   S
    C170   C192      1.52672      .   S
    C170   H42       1.09878      .   S
    C168   C194      1.52690  1_545   S
    C168   H40       1.09878      .   S
    C198   H78       1.09893      .   S
    C196   H76       1.09893      .   S
    C194   H74       1.09878      .   S
    C192   H72       1.09878      .   S
    Cd12   N372      2.46697      .   S
    Cd12   N316      2.46636      .   S
    Cd12   Cl388     2.61028      .   S
    Cd14   N374      2.46697      .   S
    Cd14   N318      2.46635      .   S
    Cd14   Cl390     2.61028      .   S
    Cd0    N336      2.46607      .   S
    Cd0    N344      2.46447      .   S
    Cd2    N338      2.46590      .   S
    Cd2    N346      2.46446      .   S
    Cd4    N340      2.46605      .   S
    Cd4    N348      2.46447      .   S
    Cd6    N342      2.46605      .   S
    Cd6    N350      2.46447      .   S
    Cd8    N368      2.46687      .   S
    Cd8    N312      2.46621      .   S
    Cd8    Cl384     2.61028      .   S
    Cd10   N370      2.46687      .   S
    Cd10   N314      2.46621      .   S
    Cd10   Cl386     2.61029      .   S
    H110   C222      1.09792      .   S
    H108   C220      1.09893      .   S
    H104   C216      1.09790      .   S
    H106   C218      1.09875      .   S
    H136   C240      1.09894      .   S
    H142   C246      1.09879      .   S
    H140   C244      1.09880      .   S
    H138   C242      1.09894      .   S
    C246   C220      1.52668      .   S
    C246   H148      1.10108      .   S
    C246   C238      1.54144      .   S
    C244   C222      1.52727  1_545   S
    C244   H150      1.10144  1_545   S
    C244   C236      1.54143      .   S
    C216   C242      1.52717      .   S
    C216   H114      1.10084      .   S
    C216   C212      1.54177      .   S
    C222   H116      1.10120  1_565   S
    C222   C210      1.54215  1_655   S
    C242   H144      1.10101      .   S
    C242   C234      1.54127      .   S
    C240   C218      1.52697  1_545   S
    C240   H146      1.10137  1_545   S
    C240   C232      1.54127      .   S
    C218   H112      1.10142  1_565   S
    C218   C214      1.54120      .   S
    C220   H118      1.10108      .   S
    C220   C208      1.54147  1_655   S
    N338   N314      1.35950      .   S
    N338   C202      1.34412      .   S
    N340   N316      1.35970      .   S
    N340   C204      1.34371      .   S
    N342   N318      1.35972      .   S
    N342   C206      1.34370      .   S
    N336   N312      1.35977      .   S
    N336   C200      1.34358      .   S
    N372   N348      1.35962      .   S
    N372   C228      1.34384      .   S
    N370   N346      1.35962      .   S
    N370   C226      1.34384      .   S
    N374   N350      1.35962      .   S
    N374   C230      1.34386      .   S
    N368   N344      1.35964      .   S
    N368   C224      1.34384      .   S
    N346   N354      1.31596      .   S
    N344   N352      1.31595      .   S
    N350   N358      1.31596      .   S
    N348   N356      1.31595      .   S
    N316   N324      1.31604      .   S
    N312   N320      1.31603      .   S
    N314   N322      1.31604      .   S
    N318   N326      1.31605      .   S
    C200   C208      1.48962      .   S
    C200   N328      1.35061      .   S
    C202   C210      1.48963      .   S
    C202   N330      1.35061      .   S
    C204   C212      1.48932      .   S
    C204   N332      1.35061      .   S
    C206   C214      1.48932      .   S
    C206   N334      1.35061      .   S
    C226   C234      1.48963      .   S
    C226   N362      1.35062      .   S
    C224   C232      1.48964      .   S
    C224   N360      1.35062      .   S
    C230   C238      1.48963      .   S
    C230   N366      1.35061      .   S
    C228   C236      1.48964      .   S
    C228   N364      1.35062      .   S
    N322   N330      1.35483      .   S
    N326   N334      1.35482      .   S
    N324   N332      1.35482      .   S
    N320   N328      1.35484      .   S
    N352   N360      1.35487      .   S
    N358   N366      1.35488      .   S
    N356   N364      1.35489      .   S
    N354   N362      1.35487      .   S
    H94    C210      1.10064  1_655   S
    H92    C208      1.10062  1_655   S
    H90    C214      1.10060      .   S
    H88    C212      1.10062      .   S
    H124   C236      1.10226      .   S
    H126   C238      1.10053      .   S
    H120   C232      1.10049      .   S
    H122   C234      1.10049      .   S
    C214   H102      1.10114      .   S
    C212   H100      1.10113      .   S
    C208   H96       1.10080      .   S
    C210   H98       1.09997      .   S
    C238   H134      1.10075      .   S
    C236   H132      1.10075      .   S
    C234   H130      1.10075      .   S
    C232   H128      1.10076      .   S
    N330   Cd17      2.30421      .   S
    N332   Cd23      2.30389      .   S
    N334   Cd21      2.30420      .   S
    N328   Cd19      2.30388      .   S
    N364   Cd21      2.30483  1_545   S
    N362   Cd19      2.30483      .   S
    N360   Cd17      2.30483  1_545   S
    N366   Cd23      2.30484      .   S
    Cd17   N299      2.30511      .   S
    Cd17   N265      2.30391  1_565   S
    Cd19   N297      2.30480      .   S
    Cd19   N267      2.30392      .   S
    Cd23   N301      2.30480      .   S
    Cd23   N271      2.30381      .   S
    Cd21   N303      2.30511      .   S
    Cd21   N269      2.30381  1_565   S
    H65    C185      1.09962      .   S
    H67    C187      1.09962      .   S
    H69    C189      1.10074      .   S
    H71    C191      1.10074      .   S
    H39    C167      1.10081      .   S
    H33    C161      1.10082      .   S
    H37    C165      1.10082      .   S
    H35    C163      1.10081      .   S
    N299   N291      1.35488      .   S
    N299   C179      1.35066      .   S
    N301   N293      1.35488      .   S
    N301   C181      1.35067      .   S
    N297   N289      1.35488      .   S
    N297   C177      1.35067      .   S
    N303   N295      1.35487      .   S
    N303   C183      1.35067      .   S
    N269   N261      1.35483      .   S
    N269   C157      1.35060      .   S
    N271   N263      1.35485      .   S
    N271   C159      1.35060      .   S
    N265   N257      1.35484      .   S
    N265   C153      1.35061      .   S
    N267   N259      1.35484      .   S
    N267   C155      1.35061      .   S
    C185   H57       1.10047      .   S
    C185   C177      1.48925      .   S
    C185   C193      1.54247      .   S
    C187   H59       1.10046      .   S
    C187   C179      1.48926      .   S
    C187   C195      1.54246      .   S
    C191   H63       1.10054      .   S
    C191   C183      1.48960      .   S
    C191   C199      1.54144      .   S
    C189   H61       1.10054      .   S
    C189   C181      1.48960      .   S
    C189   C197      1.54144      .   S
    C165   H25       1.10067  1_655   S
    C165   C157      1.48950      .   S
    C165   C169      1.54144  1_655   S
    C163   H31       1.10048      .   S
    C163   C155      1.48959      .   S
    C163   C175      1.54140      .   S
    C161   H29       1.10048      .   S
    C161   C153      1.48959      .   S
    C161   C173      1.54141      .   S
    C167   H27       1.10068  1_655   S
    C167   C159      1.48950      .   S
    C167   C171      1.54144  1_655   S
    N289   N281      1.31599      .   S
    N293   N285      1.31600      .   S
    N295   N287      1.31599      .   S
    N291   N283      1.31599      .   S
    N263   N255      1.31610      .   S
    N261   N253      1.31611      .   S
    N259   N251      1.31601      .   S
    N257   N249      1.31602      .   S
    C183   N311      1.34384      .   S
    C181   N309      1.34385      .   S
    C177   N305      1.34384      .   S
    C179   N307      1.34385      .   S
    C159   N279      1.34370      .   S
    C157   N277      1.34368      .   S
    C155   N275      1.34299      .   S
    C153   N273      1.34299      .   S
    Cl377  Cd9       2.61068      .   S
    Cl379  Cd11      2.61028      .   S
    Cl381  Cd13      2.61029      .   S
    Cl383  Cd15      2.61028      .   S
    N255   N279      1.35979      .   S
    N255   Cd15      2.46620      .   S
    N251   N275      1.36006      .   S
    N251   Cd11      2.46621      .   S
    N253   N277      1.35980      .   S
    N253   Cd13      2.46619      .   S
    N249   N273      1.36004      .   S
    N249   Cd9       2.46621      .   S
    N287   N311      1.35965      .   S
    N287   Cd3       2.46462  1_655   S
    N285   N309      1.35965      .   S
    N285   Cd1       2.46462  1_655   S
    N281   N305      1.35965      .   S
    N281   Cd5       2.46449      .   S
    N283   N307      1.35965      .   S
    N283   Cd7       2.46449      .   S
    H55    C173      1.10144  1_565   S
    H53    C175      1.10108      .   S
    H51    C169      1.10145  1_565   S
    H49    C171      1.10108      .   S
    H81    C195      1.10193  1_545   S
    H87    C197      1.10106      .   S
    H85    C199      1.10142  1_545   S
    H83    C193      1.10105      .   S
    N305   Cd9       2.46684      .   S
    N275   Cd7       2.46628      .   S
    N273   Cd5       2.46628      .   S
    N307   Cd11      2.46685      .   S
    N309   Cd13      2.46685      .   S
    N311   Cd15      2.46687      .   S
    N277   Cd1       2.46622  1_655   S
    N279   Cd3       2.46620  1_655   S
    C173   C199      1.52687  1_545   S
    C173   H45       1.09894      .   S
    C171   C193      1.52673      .   S
    C171   H43       1.09894      .   S
    C169   C195      1.52689  1_545   S
    C169   H41       1.09894      .   S
    C175   C197      1.52671      .   S
    C175   H47       1.09893      .   S
    C193   H73       1.09893      .   S
    C195   H75       1.09893      .   S
    C199   H79       1.09880      .   S
    C197   H77       1.09879      .   S
    Cd1    N337      2.46609      .   S
    Cd1    N345      2.46452      .   S
    Cd3    N339      2.46610      .   S
    Cd3    N347      2.46451      .   S
    Cd5    N341      2.46611      .   S
    Cd5    N349      2.46448      .   S
    Cd7    N343      2.46610      .   S
    Cd7    N351      2.46448      .   S
    Cd9    N369      2.46701      .   S
    Cd9    N313      2.46635      .   S
    Cd9    Cl385     2.61028      .   S
    Cd15   N375      2.46606      .   S
    Cd15   N319      2.46621      .   S
    Cd15   Cl391     2.61028      .   S
    Cd13   N373      2.46688      .   S
    Cd13   N317      2.46607      .   S
    Cd13   Cl389     2.61027      .   S
    Cd11   N371      2.46699      .   S
    Cd11   N315      2.46636      .   S
    Cd11   Cl387     2.61029      .   S
    H107   C219      1.09893      .   S
    H109   C221      1.09894      .   S
    H105   C217      1.09893      .   S
    H111   C223      1.09893      .   S
    H143   C247      1.09894      .   S
    H141   C245      1.09894      .   S
    H139   C243      1.09881      .   S
    H137   C241      1.09881      .   S
    C245   C223      1.52692  1_545   S
    C245   H151      1.10138  1_545   S
    C245   C237      1.54144      .   S
    C247   C221      1.52673      .   S
    C247   H149      1.10100      .   S
    C247   C239      1.54144      .   S
    C241   C219      1.52689  1_545   S
    C241   H147      1.10137  1_545   S
    C241   C233      1.54141      .   S
    C243   C217      1.52672      .   S
    C243   H145      1.10100      .   S
    C243   C235      1.54142      .   S
    C217   H115      1.10121      .   S
    C217   C213      1.54143      .   S
    C219   H113      1.10145  1_565   S
    C219   C215      1.54143      .   S
    C221   H119      1.10103      .   S
    C221   C209      1.54146  1_655   S
    C223   H117      1.10141  1_565   S
    C223   C211      1.54145  1_655   S
    N375   N351      1.36017      .   S
    N375   C231      1.34446      .   S
    N343   N319      1.35977      .   S
    N343   C207      1.34371      .   S
    N337   N313      1.35972      .   S
    N337   C201      1.34370      .   S
    N341   N317      1.35984      .   S
    N341   C205      1.34370      .   S
    N339   N315      1.35970      .   S
    N339   C203      1.34371      .   S
    N373   N349      1.35960      .   S
    N373   C229      1.34384      .   S
    N371   N347      1.35964      .   S
    N371   C227      1.34385      .   S
    N369   N345      1.35962      .   S
    N369   C225      1.34384      .   S
    N349   N357      1.31611      .   S
    N351   N359      1.31609      .   S
    N317   N325      1.31615      .   S
    N319   N327      1.31604      .   S
    N347   N355      1.31595      .   S
    N345   N353      1.31593      .   S
    N315   N323      1.31603      .   S
    N313   N321      1.31604      .   S
    C205   C213      1.48953      .   S
    C205   N333      1.35062      .   S
    C203   C211      1.48953      .   S
    C203   N331      1.35061      .   S
    C207   C215      1.48952      .   S
    C207   N335      1.35051      .   S
    C201   C209      1.48954      .   S
    C201   N329      1.35062      .   S
    C231   C239      1.48959      .   S
    C231   N367      1.34955      .   S
    C229   C237      1.48957      .   S
    C229   N365      1.34956      .   S
    C227   C235      1.48963      .   S
    C227   N363      1.35061      .   S
    C225   C233      1.48963      .   S
    C225   N361      1.35061      .   S
    N325   N333      1.35497      .   S
    N327   N335      1.35419      .   S
    N323   N331      1.35485      .   S
    N321   N329      1.35484      .   S
    N353   N361      1.35487      .   S
    N355   N363      1.35488      .   S
    N357   N365      1.35481      .   S
    N359   N367      1.35482      .   S
    H95    C211      1.10069  1_655   S
    H93    C209      1.10069  1_655   S
    H91    C215      1.10049      .   S
    H89    C213      1.10049      .   S
    H121   C233      1.10102      .   S
    H127   C239      1.10054      .   S
    H123   C235      1.10054      .   S
    H125   C237      1.10054      .   S
    C211   H99       1.10080      .   S
    C209   H97       1.10080      .   S
    C213   H101      1.10080      .   S
    C215   H103      1.10080      .   S
    C237   H133      1.10075      .   S
    C239   H135      1.10075      .   S
    C235   H131      1.10076      .   S
    C233   H129      1.10075      .   S
    N335   Cd20      2.30505  1_556   S
    N333   Cd22      2.30405  1_556   S
    N331   Cd16      2.30437  1_556   S
    N329   Cd18      2.30406  1_556   S
    N367   Cd22      2.30635  1_556   S
    N365   Cd20      2.30635  1_546   S
    N361   Cd16      2.30518  1_546   S
    N363   Cd18      2.30518  1_556   S
