# CIF file generated by openbabel 2.4.90, see http://openbabel.sf.net
data_I
_chemical_name_common ''
_cell_length_a 12.772
_cell_length_b 15.1
_cell_length_c 19.445
_cell_angle_alpha 90.08
_cell_angle_beta 90.028
_cell_angle_gamma 89.993
_space_group_name_H-M_alt 'P 1'
_space_group_name_Hall 'P 1'
loop_
    _symmetry_equiv_pos_as_xyz
    x,y,z
loop_
    _atom_site_label
    _atom_site_type_symbol
    _atom_site_fract_x
    _atom_site_fract_y
    _atom_site_fract_z
    _atom_site_occupancy
    Cd0     Cd   0.32050   0.26776   0.17048   1.000
    Cd1     Cd   0.82011   0.23227   0.82897   1.000
    Cd2     Cd   0.17999   0.73200   0.67104   1.000
    Cd3     Cd   0.32037   0.23206   0.67044   1.000
    Cd4     Cd   0.67946   0.73229   0.82951   1.000
    Cd5     Cd   0.17986   0.76777   0.17100   1.000
    Cd6     Cd   0.81997   0.26804   0.32894   1.000
    Cd7     Cd   0.67959   0.76798   0.32955   1.000
