# CIF file generated by openbabel 2.4.90, see http://openbabel.sf.net
data_I
_chemical_name_common ''
_cell_length_a 12.772
_cell_length_b 15.1
_cell_length_c 19.445
_cell_angle_alpha 90.08
_cell_angle_beta 90.028
_cell_angle_gamma 89.993
_space_group_name_H-M_alt 'P 1'
_space_group_name_Hall 'P 1'
loop_
    _symmetry_equiv_pos_as_xyz
    x,y,z
loop_
    _atom_site_label
    _atom_site_type_symbol
    _atom_site_fract_x
    _atom_site_fract_y
    _atom_site_fract_z
    _atom_site_occupancy
    C0      C    0.67959   0.76798   0.32955   1.000
    C1      C    0.32050   0.26776   0.17048   1.000
    C2      C    0.82011   0.23227   0.82897   1.000
    C3      C    0.17999   0.73200   0.67104   1.000
    C4      C    0.32037   0.23206   0.67044   1.000
    C5      C    0.67946   0.73229   0.82951   1.000
    C6      C    0.17986   0.76777   0.17100   1.000
    C7      C    0.81997   0.26804   0.32894   1.000
    C8      C    0.31413   0.05185   0.15490   1.000
    C9      C    0.42256   0.91906   0.18543   1.000
    C10     C    0.61962   0.09169   0.30592   1.000
    C11     C    0.50567   0.21913   0.26894   1.000
    C12     C    0.37687   0.15275   0.03591   1.000
    C13     C    0.50338   0.15068   0.93602   1.000
    C14     C    0.59325   0.41579   0.99142   1.000
    C15     C    0.45960   0.40934   0.08700   1.000
    C16     C    0.68601   0.55210   0.34500   1.000
    C17     C    0.57739   0.41926   0.31456   1.000
    C18     C    0.38040   0.59161   0.19411   1.000
    C19     C    0.49449   0.71910   0.23102   1.000
    C20     C    0.62325   0.65289   0.46374   1.000
    C21     C    0.49675   0.65067   0.56365   1.000
    C22     C    0.40653   0.91575   0.50892   1.000
    C23     C    0.54016   0.90943   0.41287   1.000
    C24     C    0.12361   0.84670   0.53678   1.000
    C25     C    0.99639   0.84921   0.43719   1.000
    C26     C    0.90673   0.58396   0.49160   1.000
    C27     C    0.00000   0.59012   0.58755   1.000
    C28     C    0.18651   0.94775   0.65523   1.000
    C29     C    0.07797   0.08077   0.68520   1.000
    C30     C    0.88014   0.90896   0.80540   1.000
    C31     C    0.99438   0.78127   0.76904   1.000
    C32     C    0.87658   0.34701   0.96355   1.000
    C33     C    0.00000   0.34931   0.06322   1.000
    C34     C    0.09305   0.08398   0.00817   1.000
    C35     C    0.95921   0.09033   0.91223   1.000
    C36     C    0.81358   0.44807   0.84484   1.000
    C37     C    0.92196   0.58103   0.81474   1.000
    C38     C    0.11977   0.40881   0.69448   1.000
    C39     C    0.00000   0.28122   0.73090   1.000
    C40     C    0.68584   0.94819   0.84508   1.000
    C41     C    0.57742   0.08098   0.81456   1.000
    C42     C    0.38035   0.90836   0.69407   1.000
    C43     C    0.49430   0.78091   0.73104   1.000
    C44     C    0.62306   0.84731   0.96406   1.000
    C45     C    0.49656   0.84938   0.06395   1.000
    C46     C    0.40676   0.58424   0.00859   1.000
    C47     C    0.54039   0.59070   0.91261   1.000
    C48     C    0.31396   0.44795   0.65499   1.000
    C49     C    0.42259   0.58078   0.68543   1.000
    C50     C    0.61957   0.40842   0.80587   1.000
    C51     C    0.50547   0.28093   0.76896   1.000
    C52     C    0.37670   0.34715   0.53623   1.000
    C53     C    0.50321   0.34936   0.43632   1.000
    C54     C    0.59347   0.08431   0.49109   1.000
    C55     C    0.45983   0.09063   0.58713   1.000
    C56     C    0.87637   0.15333   0.46318   1.000
    C57     C    0.00000   0.15082   0.56276   1.000
    C58     C    0.09322   0.41610   0.50836   1.000
    C59     C    0.95923   0.40994   0.41244   1.000
    C60     C    0.81346   0.05229   0.34476   1.000
    C61     C    0.92200   0.91927   0.31477   1.000
    C62     C    0.11983   0.09108   0.19459   1.000
    C63     C    0.00000   0.21876   0.23094   1.000
    C64     C    0.12343   0.65306   0.03641   1.000
    C65     C    0.99639   0.65076   0.93674   1.000
    C66     C    0.90686   0.91605   0.99180   1.000
    C67     C    0.00000   0.90970   0.08778   1.000
    C68     C    0.18639   0.55197   0.15514   1.000
    C69     C    0.07801   0.41901   0.18524   1.000
    C70     C    0.88019   0.59123   0.30549   1.000
    C71     C    0.99425   0.71882   0.26903   1.000
    C72     C    0.38351   0.05813   0.18717   1.000
    C73     C    0.44390   0.98457   0.20444   1.000
    C74     C    0.53082   0.99611   0.24741   1.000
    C75     C    0.55375   0.08136   0.27128   1.000
    C76     C    0.49069   0.15177   0.25136   1.000
    C77     C    0.59545   0.91853   0.27146   1.000
    C78     C    0.42660   0.20939   0.02410   1.000
    C79     C    0.49609   0.20859   0.96908   1.000
    C80     C    0.55905   0.28286   0.95757   1.000
    C81     C    0.54550   0.35705   0.99978   1.000
    C82     C    0.47329   0.35334   0.05311   1.000
    C83     C    0.64541   0.28178   0.90480   1.000
    C84     C    0.61660   0.55831   0.31276   1.000
    C85     C    0.55612   0.48474   0.29555   1.000
    C86     C    0.46918   0.49619   0.25260   1.000
    C87     C    0.44628   0.58136   0.22873   1.000
    C88     C    0.50944   0.65180   0.24860   1.000
    C89     C    0.40448   0.41855   0.22857   1.000
    C90     C    0.57345   0.70948   0.47566   1.000
    C91     C    0.50396   0.70861   0.53074   1.000
    C92     C    0.44092   0.78283   0.54243   1.000
    C93     C    0.45437   0.85705   0.50038   1.000
    C94     C    0.52658   0.85342   0.44704   1.000
    C95     C    0.35457   0.78170   0.59520   1.000
    C96     C    0.07373   0.79015   0.52489   1.000
    C97     C    0.00387   0.79117   0.46997   1.000
    C98     C    0.94085   0.71696   0.45825   1.000
    C99     C    0.95455   0.64265   0.50019   1.000
    C100    C    0.02704   0.64618   0.55344   1.000
    C101    C    0.85427   0.71819   0.40557   1.000
    C102    C    0.11701   0.94171   0.68735   1.000
    C103    C    0.05657   0.00000   0.70432   1.000
    C104    C    0.96937   0.00000   0.74701   1.000
    C105    C    0.94625   0.91905   0.77098   1.000
    C106    C    0.00946   0.84852   0.75141   1.000
    C107    C    0.90465   0.08186   0.77072   1.000
    C108    C    0.92637   0.29039   0.97533   1.000
    C109    C    0.99614   0.29129   0.03029   1.000
    C110    C    0.05907   0.21701   0.04187   1.000
    C111    C    0.04530   0.14274   0.99970   1.000
    C112    C    0.97291   0.14638   0.94646   1.000
    C113    C    0.14562   0.21812   0.09459   1.000
    C114    C    0.88305   0.44192   0.81268   1.000
    C115    C    0.94338   0.51557   0.79565   1.000
    C116    C    0.00000   0.50417   0.75290   1.000
    C117    C    0.05369   0.41902   0.72893   1.000
    C118    C    0.99059   0.34853   0.74857   1.000
    C119    C    0.09518   0.58187   0.72918   1.000
    C120    C    0.61646   0.94191   0.81282   1.000
    C121    C    0.55609   0.00000   0.79554   1.000
    C122    C    0.46914   0.00000   0.75259   1.000
    C123    C    0.44623   0.91869   0.72869   1.000
    C124    C    0.50928   0.84827   0.74862   1.000
    C125    C    0.40453   0.08152   0.72850   1.000
    C126    C    0.57335   0.79067   0.97584   1.000
    C127    C    0.50385   0.79146   0.03090   1.000
    C128    C    0.44094   0.71718   0.04240   1.000
    C129    C    0.45448   0.64299   0.00000   1.000
    C130    C    0.52670   0.64670   0.94680   1.000
    C131    C    0.35456   0.71826   0.09519   1.000
    C132    C    0.38337   0.44173   0.68722   1.000
    C133    C    0.44386   0.51530   0.70444   1.000
    C134    C    0.53080   0.50385   0.74739   1.000
    C135    C    0.55369   0.41867   0.77125   1.000
    C136    C    0.49053   0.34824   0.75138   1.000
    C137    C    0.59549   0.58148   0.77143   1.000
    C138    C    0.42651   0.29056   0.52430   1.000
    C139    C    0.49601   0.29143   0.46924   1.000
    C140    C    0.55905   0.21721   0.45756   1.000
    C141    C    0.54562   0.14301   0.49962   1.000
    C142    C    0.47340   0.14663   0.55296   1.000
    C143    C    0.64540   0.21834   0.40479   1.000
    C144    C    0.92624   0.20989   0.47507   1.000
    C145    C    0.99611   0.20886   0.52990   1.000
    C146    C    0.05912   0.28309   0.54172   1.000
    C147    C    0.04540   0.35740   0.49970   1.000
    C148    C    0.97291   0.35387   0.44654   1.000
    C149    C    0.14570   0.28184   0.59440   1.000
    C150    C    0.88296   0.05834   0.31264   1.000
    C151    C    0.94340   0.98465   0.29567   1.000
    C152    C    0.00000   0.99591   0.25298   1.000
    C153    C    0.05372   0.08098   0.22901   1.000
    C154    C    0.99051   0.15152   0.24857   1.000
    C155    C    0.09532   0.91817   0.22927   1.000
    C156    C    0.07362   0.70967   0.02464   1.000
    C157    C    0.00385   0.70876   0.96968   1.000
    C158    C    0.94090   0.78305   0.95810   1.000
    C159    C    0.95463   0.85730   0.00025   1.000
    C160    C    0.02703   0.85366   0.05353   1.000
    C161    C    0.85434   0.78192   0.90539   1.000
    C162    C    0.11692   0.55812   0.18730   1.000
    C163    C    0.05659   0.48447   0.20434   1.000
    C164    C    0.96940   0.49587   0.24705   1.000
    C165    C    0.94627   0.58102   0.27104   1.000
    C166    C    0.00937   0.65151   0.25140   1.000
    C167    C    0.90478   0.41817   0.27079   1.000
    C168    C    0.40654   0.14060   0.20986   1.000
    C169    C    0.41617   0.27999   0.06629   1.000
    C170    C    0.59363   0.64071   0.29006   1.000
    C171    C    0.58378   0.78011   0.43369   1.000
    C172    C    0.08431   0.71945   0.56678   1.000
    C173    C    0.09387   0.85941   0.71017   1.000
    C174    C    0.91576   0.21971   0.93326   1.000
    C175    C    0.90622   0.35954   0.78986   1.000
    C176    C    0.59344   0.85944   0.79012   1.000
    C177    C    0.58379   0.72006   0.93370   1.000
    C178    C    0.40634   0.35933   0.70992   1.000
    C179    C    0.41619   0.21994   0.56630   1.000
    C180    C    0.91565   0.28060   0.43319   1.000
    C181    C    0.90610   0.14063   0.28981   1.000
    C182    C    0.08421   0.78034   0.06673   1.000
    C183    C    0.09374   0.64050   0.21012   1.000
    C184    C    0.58204   0.84379   0.24207   1.000
    C185    C    0.65708   0.93011   0.32199   1.000
    C186    C    0.65012   0.21485   0.86405   1.000
    C187    C    0.71109   0.34417   0.90538   1.000
    C188    C    0.41795   0.34387   0.25789   1.000
    C189    C    0.34278   0.43003   0.17809   1.000
    C190    C    0.34997   0.71481   0.63586   1.000
    C191    C    0.28883   0.84405   0.59470   1.000
    C192    C    0.84869   0.78580   0.36568   1.000
    C193    C    0.78939   0.65525   0.40534   1.000
    C194    C    0.91994   0.15681   0.74226   1.000
    C195    C    0.84105   0.07020   0.82011   1.000
    C196    C    0.15121   0.28563   0.13472   1.000
    C197    C    0.21053   0.15518   0.09450   1.000
    C198    C    0.08012   0.65684   0.75780   1.000
    C199    C    0.15856   0.57011   0.67960   1.000
    C200    C    0.41793   0.15625   0.75792   1.000
    C201    C    0.34288   0.06993   0.67801   1.000
    C202    C    0.34986   0.78518   0.13595   1.000
    C203    C    0.28889   0.65587   0.09462   1.000
    C204    C    0.58202   0.65616   0.74211   1.000
    C205    C    0.65719   0.57000   0.82191   1.000
    C206    C    0.65000   0.28522   0.36412   1.000
    C207    C    0.71115   0.15599   0.40527   1.000
    C208    C    0.15129   0.21422   0.63426   1.000
    C209    C    0.21056   0.34480   0.59460   1.000
    C210    C    0.08003   0.84323   0.25774   1.000
    C211    C    0.15891   0.92983   0.17987   1.000
    C212    C    0.84877   0.71443   0.86524   1.000
    C213    C    0.78941   0.84485   0.90541   1.000
    C214    C    0.91986   0.34320   0.24216   1.000
    C215    C    0.84137   0.42993   0.32031   1.000
    O216    O    0.43062   0.61362   0.00430   1.000
    O217    O    0.44771   0.68009   0.02120   1.000
    O218    O    0.49059   0.64485   0.97340   1.000
    O219    O    0.99083   0.85548   0.02689   1.000
    O220    O    0.94777   0.82017   0.97918   1.000
    O221    O    0.93075   0.88667   0.99602   1.000
    O222    O    0.06918   0.11336   0.00393   1.000
    O223    O    0.40174   0.18107   0.03000   1.000
    O224    O    0.42139   0.24469   0.04519   1.000
    O225    O    0.46135   0.20899   0.99659   1.000
    O226    O    0.09852   0.68137   0.03052   1.000
    O227    O    0.07892   0.74500   0.04568   1.000
    O228    O    0.03873   0.70922   0.99716   1.000
    O229    O    0.02760   0.25415   0.03608   1.000
    O230    O    0.99807   0.32030   0.04676   1.000
    O231    O    0.96125   0.29084   0.00281   1.000
    O232    O    0.47239   0.75432   0.03665   1.000
    O233    O    0.50021   0.82042   0.04743   1.000
    O234    O    0.53860   0.79106   0.00337   1.000
    O235    O    0.10234   0.21756   0.06823   1.000
    O236    O    0.05219   0.17987   0.02078   1.000
    O237    O    0.39775   0.71772   0.06879   1.000
    O238    O    0.44473   0.31666   0.05970   1.000
    O239    O    0.46644   0.38134   0.07005   1.000
    O240    O    0.50939   0.35519   0.02645   1.000
    O241    O    0.05562   0.81700   0.06013   1.000
    O242    O    0.01351   0.88168   0.07066   1.000
    O243    O    0.36834   0.27387   0.11839   1.000
    O244    O    0.13203   0.77405   0.11887   1.000
    O245    O    0.17808   0.18665   0.09454   1.000
    O246    O    0.14842   0.25187   0.11465   1.000
    O247    O    0.32172   0.68706   0.09490   1.000
    O248    O    0.35221   0.75172   0.11557   1.000
    O249    O    0.23586   0.27669   0.15260   1.000
    O250    O    0.26486   0.77648   0.15348   1.000
    O251    O    0.34882   0.05500   0.17104   1.000
    O252    O    0.15165   0.55504   0.17122   1.000
    O253    O    0.33164   0.34889   0.17428   1.000
    O254    O    0.36352   0.20418   0.19017   1.000
    O255    O    0.36923   0.30581   0.21418   1.000
    O256    O    0.16939   0.84880   0.17544   1.000
    O257    O    0.13680   0.70414   0.19056   1.000
    O258    O    0.12995   0.80550   0.21437   1.000
    O259    O    0.37363   0.42429   0.20333   1.000
    O260    O    0.12711   0.92400   0.20457   1.000
    O261    O    0.06730   0.45174   0.19479   1.000
    O262    O    0.43323   0.95181   0.19493   1.000
    O263    O    0.41370   0.02135   0.19581   1.000
    O264    O    0.39503   0.09937   0.19851   1.000
    O265    O    0.08675   0.52129   0.19582   1.000
    O266    O    0.10533   0.59931   0.19871   1.000
    O267    O    0.41334   0.58649   0.21142   1.000
    O268    O    0.08678   0.08603   0.21180   1.000
    O269    O    0.01300   0.49017   0.22569   1.000
    O270    O    0.48736   0.99034   0.22592   1.000
    O271    O    0.44861   0.14619   0.23061   1.000
    O272    O    0.05155   0.64601   0.23076   1.000
    O273    O    0.43683   0.45737   0.24058   1.000
    O274    O    0.41122   0.38121   0.24323   1.000
    O275    O    0.47786   0.61658   0.23866   1.000
    O276    O    0.45773   0.53877   0.24066   1.000
    O277    O    0.02211   0.11625   0.23879   1.000
    O278    O    0.02686   0.03845   0.24099   1.000
    O279    O    0.04766   0.95704   0.24113   1.000
    O280    O    0.08767   0.88070   0.24351   1.000
    O281    O    0.99526   0.18514   0.23975   1.000
    O282    O    0.50197   0.68545   0.23981   1.000
    O283    O    0.58874   0.88116   0.25676   1.000
    O284    O    0.63081   0.80589   0.28581   1.000
    O285    O    0.91232   0.38068   0.25648   1.000
    O286    O    0.86992   0.30562   0.28555   1.000
    O287    O    0.93709   0.45702   0.25892   1.000
    O288    O    0.95784   0.53845   0.25904   1.000
    O289    O    0.54229   0.03874   0.25935   1.000
    O290    O    0.56313   0.95732   0.25943   1.000
    O291    O    0.94830   0.14607   0.26919   1.000
    O292    O    0.55153   0.64625   0.26933   1.000
    O293    O    0.49818   0.18545   0.26015   1.000
    O294    O    0.52222   0.11657   0.26132   1.000
    O295    O    0.00181   0.68517   0.26022   1.000
    O296    O    0.97782   0.61627   0.26122   1.000
    O297    O    0.51265   0.49046   0.27408   1.000
    O298    O    0.97170   0.99028   0.27432   1.000
    O299    O    0.87307   0.42405   0.29555   1.000
    O300    O    0.91323   0.58613   0.28827   1.000
    O301    O    0.58669   0.08653   0.28860   1.000
    O302    O    0.62626   0.92432   0.29672   1.000
    O303    O    0.89453   0.09948   0.30122   1.000
    O304    O    0.86303   0.20433   0.30938   1.000
    O305    O    0.60511   0.59951   0.30141   1.000
    O306    O    0.63661   0.70435   0.30980   1.000
    O307    O    0.58636   0.52153   0.30415   1.000
    O308    O    0.56675   0.45200   0.30505   1.000
    O309    O    0.91318   0.02149   0.30415   1.000
    O310    O    0.93270   0.95196   0.30522   1.000
    O311    O    0.84821   0.05531   0.32870   1.000
    O312    O    0.65131   0.55521   0.32888   1.000
    O313    O    0.83067   0.34898   0.32462   1.000
    O314    O    0.66833   0.84905   0.32577   1.000
    O315    O    0.73499   0.27663   0.34653   1.000
    O316    O    0.86781   0.27432   0.38106   1.000
    O317    O    0.76414   0.77689   0.34762   1.000
    O318    O    0.63168   0.77405   0.38162   1.000
    O319    O    0.64770   0.25178   0.38445   1.000
    O320    O    0.85148   0.75199   0.38562   1.000
    O321    O    0.67827   0.18716   0.40503   1.000
    O322    O    0.60223   0.21778   0.43118   1.000
    O323    O    0.82183   0.68672   0.40546   1.000
    O324    O    0.89756   0.71757   0.43191   1.000
    O325    O    0.96607   0.38191   0.42949   1.000
    O326    O    0.53337   0.88142   0.42996   1.000
    O327    O    0.94428   0.31724   0.43986   1.000
    O328    O    0.92095   0.24524   0.45413   1.000
    O329    O    0.55518   0.81677   0.44037   1.000
    O330    O    0.57862   0.74480   0.45467   1.000
    O331    O    0.49961   0.32040   0.45278   1.000
    O332    O    0.00013   0.82019   0.45358   1.000
    O333    O    0.00916   0.35564   0.47312   1.000
    O334    O    0.49047   0.85523   0.47371   1.000
    O335    O    0.52753   0.25432   0.46340   1.000
    O336    O    0.55234   0.18011   0.47859   1.000
    O337    O    0.97236   0.75407   0.46411   1.000
    O338    O    0.94770   0.67980   0.47922   1.000
    O339    O    0.90131   0.18161   0.46912   1.000
    O340    O    0.59835   0.68119   0.46970   1.000
    O341    O    0.46126   0.29099   0.49677   1.000
    O342    O    0.03880   0.79066   0.49743   1.000
    O343    O    0.96118   0.20937   0.50248   1.000
    O344    O    0.53871   0.70904   0.50320   1.000
    O345    O    0.56955   0.11366   0.49535   1.000
    O346    O    0.93064   0.61330   0.49590   1.000
    O347    O    0.50951   0.14482   0.52629   1.000
    O348    O    0.06931   0.38675   0.50403   1.000
    O349    O    0.05226   0.32024   0.52071   1.000
    O350    O    0.99080   0.64442   0.52682   1.000
    O351    O    0.43045   0.88640   0.50465   1.000
    O352    O    0.44764   0.81994   0.52141   1.000
    O353    O    0.40160   0.31885   0.53026   1.000
    O354    O    0.42135   0.25525   0.54530   1.000
    O355    O    0.09867   0.81843   0.53083   1.000
    O356    O    0.07902   0.75480   0.54583   1.000
    O357    O    0.02762   0.24597   0.53581   1.000
    O358    O    0.99806   0.17984   0.54633   1.000
    O359    O    0.47244   0.74572   0.53658   1.000
    O360    O    0.50035   0.67964   0.54719   1.000
    O361    O    0.10241   0.28247   0.56806   1.000
    O362    O    0.39775   0.78226   0.56881   1.000
    O363    O    0.44480   0.18328   0.55963   1.000
    O364    O    0.46662   0.11863   0.57005   1.000
    O365    O    0.05567   0.68282   0.56011   1.000
    O366    O    0.01352   0.61815   0.57049   1.000
    O367    O    0.36828   0.22600   0.61837   1.000
    O368    O    0.13215   0.72572   0.61891   1.000
    O369    O    0.17813   0.31332   0.59450   1.000
    O370    O    0.14850   0.24803   0.61433   1.000
    O371    O    0.32170   0.81287   0.59495   1.000
    O372    O    0.35227   0.74826   0.61553   1.000
    O373    O    0.23583   0.22314   0.65235   1.000
    O374    O    0.26498   0.72341   0.65345   1.000
    O375    O    0.34867   0.44484   0.67110   1.000
    O376    O    0.15176   0.94473   0.67129   1.000
    O377    O    0.33163   0.15100   0.67422   1.000
    O378    O    0.36336   0.29570   0.69018   1.000
    O379    O    0.36915   0.19415   0.71418   1.000
    O380    O    0.16928   0.65106   0.67532   1.000
    O381    O    0.13693   0.79571   0.69061   1.000
    O382    O    0.13006   0.69442   0.71442   1.000
    O383    O    0.37370   0.07572   0.70325   1.000
    O384    O    0.12687   0.57599   0.70439   1.000
    O385    O    0.06727   0.04038   0.69476   1.000
    O386    O    0.43322   0.54804   0.69493   1.000
    O387    O    0.41362   0.47852   0.69583   1.000
    O388    O    0.39486   0.40053   0.69857   1.000
    O389    O    0.08679   0.97085   0.69583   1.000
    O390    O    0.10544   0.90056   0.69876   1.000
    O391    O    0.41329   0.91352   0.71138   1.000
    O392    O    0.08673   0.41391   0.71170   1.000
    O393    O    0.01297   0.00000   0.72566   1.000
    O394    O    0.48733   0.50958   0.72591   1.000
    O395    O    0.44844   0.35379   0.73065   1.000
    O396    O    0.05167   0.85396   0.73079   1.000
    O397    O    0.43684   0.04076   0.74055   1.000
    O398    O    0.41123   0.11888   0.74321   1.000
    O399    O    0.47776   0.88348   0.73865   1.000
    O400    O    0.45769   0.95934   0.74064   1.000
    O401    O    0.02214   0.38377   0.73875   1.000
    O402    O    0.02684   0.46159   0.74091   1.000
    O403    O    0.04759   0.54302   0.74104   1.000
    O404    O    0.08765   0.61935   0.74349   1.000
    O405    O    0.99529   0.31487   0.73973   1.000
    O406    O    0.50179   0.81459   0.73983   1.000
    O407    O    0.58876   0.61882   0.75677   1.000
    O408    O    0.63074   0.69422   0.78581   1.000
    O409    O    0.91230   0.11934   0.75649   1.000
    O410    O    0.87002   0.19454   0.78562   1.000
    O411    O    0.93701   0.04093   0.75887   1.000
    O412    O    0.95781   0.95953   0.75899   1.000
    O413    O    0.54224   0.46126   0.75932   1.000
    O414    O    0.56315   0.54267   0.75941   1.000
    O415    O    0.94841   0.35403   0.76921   1.000
    O416    O    0.55136   0.85386   0.76937   1.000
    O417    O    0.49800   0.31459   0.76017   1.000
    O418    O    0.52211   0.38346   0.76131   1.000
    O419    O    0.00192   0.81490   0.76022   1.000
    O420    O    0.97786   0.88379   0.76119   1.000
    O421    O    0.51261   0.00000   0.77407   1.000
    O422    O    0.97169   0.50987   0.77427   1.000
    O423    O    0.87285   0.07603   0.79541   1.000
    O424    O    0.91319   0.91401   0.78819   1.000
    O425    O    0.58663   0.41354   0.78856   1.000
    O426    O    0.62634   0.57574   0.79667   1.000
    O427    O    0.89464   0.40073   0.80127   1.000
    O428    O    0.86317   0.29590   0.80941   1.000
    O429    O    0.60495   0.90068   0.80147   1.000
    O430    O    0.63645   0.79587   0.80982   1.000
    O431    O    0.58627   0.97095   0.80418   1.000
    O432    O    0.56675   0.04049   0.80505   1.000
    O433    O    0.91322   0.47874   0.80417   1.000
    O434    O    0.93267   0.54830   0.80519   1.000
    O435    O    0.84831   0.44500   0.82876   1.000
    O436    O    0.65115   0.94505   0.82895   1.000
    O437    O    0.83058   0.15123   0.82454   1.000
    O438    O    0.66833   0.65114   0.82571   1.000
    O439    O    0.73511   0.22356   0.84651   1.000
    O440    O    0.86793   0.22599   0.88111   1.000
    O441    O    0.76412   0.72336   0.84738   1.000
    O442    O    0.63163   0.72617   0.88160   1.000
    O443    O    0.64776   0.24831   0.88443   1.000
    O444    O    0.85156   0.74818   0.88531   1.000
    O445    O    0.67825   0.31297   0.90509   1.000
    O446    O    0.60223   0.28232   0.93119   1.000
    O447    O    0.82187   0.81339   0.90540   1.000
    O448    O    0.89762   0.78248   0.93174   1.000
    O449    O    0.96606   0.11835   0.92935   1.000
    O450    O    0.53355   0.61870   0.92971   1.000
    O451    O    0.94434   0.18305   0.93986   1.000
    O452    O    0.92106   0.25505   0.95430   1.000
    O453    O    0.55525   0.68338   0.94025   1.000
    O454    O    0.57857   0.75536   0.95477   1.000
    O455    O    0.49973   0.17964   0.95255   1.000
    O456    O    0.00012   0.67976   0.95321   1.000
    O457    O    0.00911   0.14456   0.97308   1.000
    O458    O    0.52757   0.24573   0.96332   1.000
    O459    O    0.55227   0.31995   0.97867   1.000
    O460    O    0.97238   0.74591   0.96389   1.000
    O461    O    0.90148   0.31870   0.96944   1.000
    O462    O    0.59820   0.81899   0.96995   1.000
    O463    O    0.56938   0.38642   0.99560   1.000
loop_
    _geom_bond_atom_site_label_1
    _geom_bond_atom_site_label_2
    _geom_bond_distance
    _geom_bond_site_symmetry_2
    _ccdc_geom_bond_type
    C129   O216      0.54478      .   S
    C46    O216      0.54478      .   S
    C129   O217      0.70036      .   S
    C128   O217      0.70036      .   S
    C129   O218      0.69377  1_554   S
    C130   O218      0.69377      .   S
    C159   O219      0.69472      .   S
    C160   O219      0.69472  1_455   S
    C159   O220      0.69945  1_554   S
    C158   O220      0.69945      .   S
    C159   O221      0.54460  1_554   S
    C66    O221      0.54460      .   S
    C34    O222      0.54462      .   S
    C111   O222      0.54462  1_556   S
    C78    O223      0.54506      .   S
    C12    O223      0.54506      .   S
    C78    O224      0.67545      .   S
    C169   O224      0.67545      .   S
    C78    O225      0.69522  1_554   S
    C79    O225      0.69522      .   S
    C156   O226      0.54496      .   S
    C64    O226      0.54496      .   S
    C156   O227      0.67530      .   S
    C182   O227      0.67530      .   S
    C156   O228      0.69561  1_554   S
    C157   O228      0.69561      .   S
    C109   O229      0.69917  1_655   S
    C110   O229      0.69917      .   S
    C109   O230      0.54274      .   S
    C33    O230      0.54274  1_455   S
    C109   O231      0.69557      .   S
    C108   O231      0.69557  1_556   S
    C127   O232      0.69911      .   S
    C128   O232      0.69911      .   S
    C127   O233      0.54428      .   S
    C45    O233      0.54428      .   S
    C127   O234      0.69554      .   S
    C126   O234      0.69554  1_556   S
    C110   O235      0.75365      .   S
    C113   O235      0.75365      .   S
    C110   O236      0.69970      .   S
    C111   O236      0.69970  1_556   S
    C128   O237      0.75365      .   S
    C131   O237      0.75365      .   S
    C82    O238      0.67559      .   S
    C169   O238      0.67559      .   S
    C82    O239      0.54275      .   S
    C15    O239      0.54275      .   S
    C82    O240      0.69469      .   S
    C81    O240      0.69469  1_556   S
    C160   O241      0.67555      .   S
    C182   O241      0.67555      .   S
    C160   O242      0.56514      .   S
    C67    O242      0.56514      .   S
    C169   O243      1.18693      .   S
    C1     O243      1.18693      .   S
    C182   O244      1.18722      .   S
    C6     O244      1.18722      .   S
    C197   O245      0.63056      .   S
    C113   O245      0.63056      .   S
    C113   O246      0.64246      .   S
    C196   O246      0.64246      .   S
    C203   O247      0.63080      .   S
    C131   O247      0.63080      .   S
    C131   O248      0.64242      .   S
    C202   O248      0.64242      .   S
    C196   O249      1.14348      .   S
    C1     O249      1.14348      .   S
    C202   O250      1.14564      .   S
    C6     O250      1.14564      .   S
    C8     O251      0.54482      .   S
    C72    O251      0.54482      .   S
    C68    O252      0.54486      .   S
    C162   O252      0.54486      .   S
    C1     O253      1.23551      .   S
    C189   O253      1.23551      .   S
    C1     O254      1.17080      .   S
    C168   O254      1.17080      .   S
    C1     O255      1.19916      .   S
    C188   O255      1.19916      .   S
    C6     O256      1.23371      .   S
    C211   O256      1.23371      .   S
    C6     O257      1.17126      .   S
    C183   O257      1.17126      .   S
    C6     O258      1.20052      .   S
    C210   O258      1.20052      .   S
    C189   O259      0.63527      .   S
    C89    O259      0.63527      .   S
    C211   O260      0.63535      .   S
    C155   O260      0.63535      .   S
    C69    O261      0.54520      .   S
    C163   O261      0.54520      .   S
    C9     O262      0.54506      .   S
    C73    O262      0.54506      .   S
    C72    O263      0.69680      .   S
    C73    O263      0.69680  1_565   S
    C72    O264      0.67643      .   S
    C168   O264      0.67643      .   S
    C162   O265      0.69672      .   S
    C163   O265      0.69672      .   S
    C162   O266      0.67645      .   S
    C183   O266      0.67645      .   S
    C18    O267      0.54428      .   S
    C87    O267      0.54428      .   S
    C62    O268      0.54432      .   S
    C153   O268      0.54432      .   S
    C163   O269      0.69996      .   S
    C164   O269      0.69996  1_655   S
    C73    O270      0.69997      .   S
    C74    O270      0.69997      .   S
    C168   O271      0.67706      .   S
    C76    O271      0.67706      .   S
    C183   O272      0.67705      .   S
    C166   O272      0.67705      .   S
    C89    O273      0.75396      .   S
    C86    O273      0.75396      .   S
    C89    O274      0.63792      .   S
    C188   O274      0.63792      .   S
    C87    O275      0.69457      .   S
    C88    O275      0.69457      .   S
    C87    O276      0.69940      .   S
    C86    O276      0.69940      .   S
    C153   O277      0.69459      .   S
    C154   O277      0.69459  1_655   S
    C153   O278      0.76487      .   S
    C152   O278      0.76487  1_565   S
    C155   O279      0.87627      .   S
    C152   O279      0.87627      .   S
    C155   O280      0.63776      .   S
    C210   O280      0.63776      .   S
    C63    O281      0.53951  1_455   S
    C154   O281      0.53951      .   S
    C19    O282      0.54476      .   S
    C88    O282      0.54476      .   S
    C184   O283      0.63788      .   S
    C77    O283      0.63788      .   S
    C184   O284      1.19993      .   S
    C0     O284      1.19993      .   S
    C214   O285      0.63774      .   S
    C167   O285      0.63774      .   S
    C214   O286      1.20113      .   S
    C7     O286      1.20113      .   S
    C164   O287      0.75389      .   S
    C167   O287      0.75389      .   S
    C164   O288      0.69936      .   S
    C165   O288      0.69936      .   S
    C74    O289      0.69941  1_565   S
    C75    O289      0.69941      .   S
    C74    O290      0.75385      .   S
    C77    O290      0.75385      .   S
    C154   O291      0.67708      .   S
    C181   O291      0.67708      .   S
    C88    O292      0.67707      .   S
    C170   O292      0.67707      .   S
    C76    O293      0.54477      .   S
    C11    O293      0.54477      .   S
    C76    O294      0.69459      .   S
    C75    O294      0.69459      .   S
    C166   O295      0.54471      .   S
    C71    O295      0.54471  1_655   S
    C166   O296      0.69460  1_455   S
    C165   O296      0.69460      .   S
    C86    O297      0.69997      .   S
    C85    O297      0.69997      .   S
    C152   O298      0.55714  1_455   S
    C151   O298      0.55714      .   S
    C167   O299      0.63539      .   S
    C215   O299      0.63539      .   S
    C165   O300      0.54434      .   S
    C70    O300      0.54434      .   S
    C75    O301      0.54428      .   S
    C10    O301      0.54428      .   S
    C77    O302      0.63532      .   S
    C185   O302      0.63532      .   S
    C181   O303      0.67644      .   S
    C150   O303      0.67644      .   S
    C181   O304      1.17116      .   S
    C7     O304      1.17116      .   S
    C170   O305      0.67643      .   S
    C84    O305      0.67643      .   S
    C170   O306      1.17087      .   S
    C0     O306      1.17087      .   S
    C85    O307      0.69678      .   S
    C84    O307      0.69678      .   S
    C85    O308      0.54517      .   S
    C17    O308      0.54517      .   S
    C151   O309      0.69673  1_565   S
    C150   O309      0.69673      .   S
    C151   O310      0.54505      .   S
    C61    O310      0.54505      .   S
    C150   O311      0.54481      .   S
    C60    O311      0.54481      .   S
    C84    O312      0.54483      .   S
    C16    O312      0.54483      .   S
    C215   O313      1.23285      .   S
    C7     O313      1.23285      .   S
    C185   O314      1.23475      .   S
    C0     O314      1.23475      .   S
    C7     O315      1.14551      .   S
    C206   O315      1.14551      .   S
    C7     O316      1.18693      .   S
    C180   O316      1.18693      .   S
    C0     O317      1.14330      .   S
    C192   O317      1.14330      .   S
    C0     O318      1.18666      .   S
    C171   O318      1.18666      .   S
    C206   O319      0.64248      .   S
    C143   O319      0.64248      .   S
    C192   O320      0.64246      .   S
    C101   O320      0.64246      .   S
    C143   O321      0.63075      .   S
    C207   O321      0.63075      .   S
    C143   O322      0.75344      .   S
    C140   O322      0.75344      .   S
    C193   O323      0.63053      .   S
    C101   O323      0.63053      .   S
    C101   O324      0.75355      .   S
    C98    O324      0.75355      .   S
    C59    O325      0.54509      .   S
    C148   O325      0.54509      .   S
    C23    O326      0.54511      .   S
    C94    O326      0.54511      .   S
    C180   O327      0.67553      .   S
    C148   O327      0.67553      .   S
    C180   O328      0.67527      .   S
    C144   O328      0.67527      .   S
    C171   O329      0.67558      .   S
    C94    O329      0.67558      .   S
    C171   O330      0.67517      .   S
    C90    O330      0.67517      .   S
    C53    O331      0.54429      .   S
    C139   O331      0.54429      .   S
    C25    O332      0.54425  1_655   S
    C97    O332      0.54425      .   S
    C148   O333      0.69417  1_655   S
    C147   O333      0.69417      .   S
    C94    O334      0.69466      .   S
    C93    O334      0.69466      .   S
    C140   O335      0.69913      .   S
    C139   O335      0.69913      .   S
    C140   O336      0.69941      .   S
    C141   O336      0.69941      .   S
    C98    O337      0.69915      .   S
    C97    O337      0.69915  1_455   S
    C98    O338      0.69947      .   S
    C99    O338      0.69947      .   S
    C56    O339      0.54494      .   S
    C144   O339      0.54494      .   S
    C20    O340      0.54498      .   S
    C90    O340      0.54498      .   S
    C139   O341      0.69558      .   S
    C138   O341      0.69558      .   S
    C97    O342      0.69568      .   S
    C96    O342      0.69568      .   S
    C144   O343      0.69505      .   S
    C145   O343      0.69505      .   S
    C90    O344      0.69571      .   S
    C91    O344      0.69571      .   S
    C54    O345      0.54453      .   S
    C141   O345      0.54453      .   S
    C26    O346      0.54456      .   S
    C99    O346      0.54456      .   S
    C141   O347      0.69469      .   S
    C142   O347      0.69469      .   S
    C147   O348      0.54466      .   S
    C58    O348      0.54466      .   S
    C147   O349      0.69997      .   S
    C146   O349      0.69997      .   S
    C99    O350      0.69479      .   S
    C100   O350      0.69479  1_455   S
    C93    O351      0.54454      .   S
    C22    O351      0.54454      .   S
    C93    O352      0.69942      .   S
    C92    O352      0.69942      .   S
    C138   O353      0.54501      .   S
    C52    O353      0.54501      .   S
    C138   O354      0.67529      .   S
    C179   O354      0.67529      .   S
    C96    O355      0.54496      .   S
    C24    O355      0.54496      .   S
    C96    O356      0.67527      .   S
    C172   O356      0.67527      .   S
    C145   O357      0.69929  1_655   S
    C146   O357      0.69929      .   S
    C145   O358      0.54322      .   S
    C57    O358      0.54322  1_455   S
    C91    O359      0.69913      .   S
    C92    O359      0.69913      .   S
    C91    O360      0.54428      .   S
    C21    O360      0.54428      .   S
    C146   O361      0.75356      .   S
    C149   O361      0.75356      .   S
    C92    O362      0.75342      .   S
    C95    O362      0.75342      .   S
    C142   O363      0.67557      .   S
    C179   O363      0.67557      .   S
    C142   O364      0.54508      .   S
    C55    O364      0.54508      .   S
    C100   O365      0.67553      .   S
    C172   O365      0.67553      .   S
    C100   O366      0.56520      .   S
    C27    O366      0.56520      .   S
    C179   O367      1.18670      .   S
    C4     O367      1.18670      .   S
    C172   O368      1.18701      .   S
    C3     O368      1.18701      .   S
    C149   O369      0.63052      .   S
    C209   O369      0.63052      .   S
    C149   O370      0.64241      .   S
    C208   O370      0.64241      .   S
    C191   O371      0.63076      .   S
    C95    O371      0.63076      .   S
    C95    O372      0.64247      .   S
    C190   O372      0.64247      .   S
    C208   O373      1.14336      .   S
    C4     O373      1.14336      .   S
    C190   O374      1.14557      .   S
    C3     O374      1.14557      .   S
    C48    O375      0.54477      .   S
    C132   O375      0.54477      .   S
    C28    O376      0.54480      .   S
    C102   O376      0.54480      .   S
    C4     O377      1.23475      .   S
    C201   O377      1.23475      .   S
    C4     O378      1.17087      .   S
    C178   O378      1.17087      .   S
    C4     O379      1.19996      .   S
    C200   O379      1.19996      .   S
    C3     O380      1.23286      .   S
    C199   O380      1.23286      .   S
    C3     O381      1.17113      .   S
    C173   O381      1.17113      .   S
    C3     O382      1.20094      .   S
    C198   O382      1.20094      .   S
    C201   O383      0.63509      .   S
    C125   O383      0.63509      .   S
    C199   O384      0.63570      .   S
    C119   O384      0.63570      .   S
    C29    O385      0.65227      .   S
    C103   O385      0.65227      .   S
    C49    O386      0.54517      .   S
    C133   O386      0.54517      .   S
    C132   O387      0.69678      .   S
    C133   O387      0.69678      .   S
    C132   O388      0.67644      .   S
    C178   O388      0.67644      .   S
    C102   O389      0.60803      .   S
    C103   O389      0.60803  1_545   S
    C102   O390      0.67642      .   S
    C173   O390      0.67642      .   S
    C42    O391      0.54422      .   S
    C123   O391      0.54422      .   S
    C38    O392      0.54429      .   S
    C117   O392      0.54429      .   S
    C103   O393      0.69469      .   S
    C104   O393      0.69469  1_655   S
    C133   O394      0.69996      .   S
    C134   O394      0.69996      .   S
    C178   O395      0.67707      .   S
    C136   O395      0.67707      .   S
    C173   O396      0.67706      .   S
    C106   O396      0.67706      .   S
    C125   O397      0.77724      .   S
    C122   O397      0.77724      .   S
    C125   O398      0.63800      .   S
    C200   O398      0.63800      .   S
    C123   O399      0.69459      .   S
    C124   O399      0.69459      .   S
    C123   O400      0.67222      .   S
    C122   O400      0.67222  1_545   S
    C117   O401      0.69461      .   S
    C118   O401      0.69461  1_655   S
    C117   O402      0.76470      .   S
    C116   O402      0.76470      .   S
    C119   O403      0.87604      .   S
    C116   O403      0.87604      .   S
    C119   O404      0.63767      .   S
    C198   O404      0.63767      .   S
    C39    O405      0.53958  1_455   S
    C118   O405      0.53958      .   S
    C43    O406      0.54476      .   S
    C124   O406      0.54476      .   S
    C204   O407      0.63796      .   S
    C137   O407      0.63796      .   S
    C204   O408      1.19910      .   S
    C5     O408      1.19910      .   S
    C194   O409      0.63777      .   S
    C107   O409      0.63777      .   S
    C194   O410      1.20034      .   S
    C2     O410      1.20034      .   S
    C104   O411      0.77821      .   S
    C107   O411      0.77821      .   S
    C104   O412      0.67085  1_545   S
    C105   O412      0.67085      .   S
    C134   O413      0.69938      .   S
    C135   O413      0.69938      .   S
    C134   O414      0.75396      .   S
    C137   O414      0.75396      .   S
    C118   O415      0.67708      .   S
    C175   O415      0.67708      .   S
    C124   O416      0.67708      .   S
    C176   O416      0.67708      .   S
    C136   O417      0.54477      .   S
    C51    O417      0.54477      .   S
    C136   O418      0.69457      .   S
    C135   O418      0.69457      .   S
    C106   O419      0.54471      .   S
    C31    O419      0.54471  1_655   S
    C106   O420      0.69461  1_455   S
    C105   O420      0.69461      .   S
    C122   O421      0.69459      .   S
    C121   O421      0.69459      .   S
    C116   O422      0.55760  1_455   S
    C115   O422      0.55760      .   S
    C107   O423      0.63531      .   S
    C195   O423      0.63531      .   S
    C105   O424      0.54431      .   S
    C30    O424      0.54431      .   S
    C135   O425      0.54428      .   S
    C50    O425      0.54428      .   S
    C137   O426      0.63527      .   S
    C205   O426      0.63527      .   S
    C175   O427      0.67644      .   S
    C114   O427      0.67644      .   S
    C175   O428      1.17122      .   S
    C2     O428      1.17122      .   S
    C176   O429      0.67645      .   S
    C120   O429      0.67645      .   S
    C176   O430      1.17081      .   S
    C5     O430      1.17081      .   S
    C121   O431      0.60772  1_545   S
    C120   O431      0.60772      .   S
    C121   O432      0.65290      .   S
    C41    O432      0.65290      .   S
    C115   O433      0.69670      .   S
    C114   O433      0.69670      .   S
    C115   O434      0.54518      .   S
    C37    O434      0.54518      .   S
    C114   O435      0.54485      .   S
    C36    O435      0.54485      .   S
    C120   O436      0.54477      .   S
    C40    O436      0.54477      .   S
    C195   O437      1.23380      .   S
    C2     O437      1.23380      .   S
    C205   O438      1.23564      .   S
    C5     O438      1.23564      .   S
    C2     O439      1.14569      .   S
    C186   O439      1.14569      .   S
    C2     O440      1.18737      .   S
    C174   O440      1.18737      .   S
    C5     O441      1.14348      .   S
    C212   O441      1.14348      .   S
    C5     O442      1.18694      .   S
    C177   O442      1.18694      .   S
    C186   O443      0.64239      .   S
    C83    O443      0.64239      .   S
    C212   O444      0.64244      .   S
    C161   O444      0.64244      .   S
    C83    O445      0.63079      .   S
    C187   O445      0.63079      .   S
    C83    O446      0.75347      .   S
    C80    O446      0.75347      .   S
    C161   O447      0.63056      .   S
    C213   O447      0.63056      .   S
    C161   O448      0.75366      .   S
    C158   O448      0.75366      .   S
    C35    O449      0.54507      .   S
    C112   O449      0.54507      .   S
    C47    O450      0.54455      .   S
    C130   O450      0.54455      .   S
    C174   O451      0.67553      .   S
    C112   O451      0.67553      .   S
    C174   O452      0.67528      .   S
    C108   O452      0.67528      .   S
    C177   O453      0.67543      .   S
    C130   O453      0.67543      .   S
    C177   O454      0.67519      .   S
    C126   O454      0.67519      .   S
    C13    O455      0.54431      .   S
    C79    O455      0.54431      .   S
    C65    O456      0.54425  1_655   S
    C157   O456      0.54425      .   S
    C112   O457      0.69439  1_655   S
    C111   O457      0.69439      .   S
    C80    O458      0.69916      .   S
    C79    O458      0.69916      .   S
    C80    O459      0.69929      .   S
    C81    O459      0.69929      .   S
    C158   O460      0.69918      .   S
    C157   O460      0.69918  1_455   S
    C32    O461      0.54497      .   S
    C108   O461      0.54497      .   S
    C44    O462      0.54498      .   S
    C126   O462      0.54498      .   S
    C14    O463      0.54447      .   S
    C81    O463      0.54447      .   S
