# CIF file generated by openbabel 2.4.90, see http://openbabel.sf.net
data_I
_chemical_name_common ''
_cell_length_a 12.772
_cell_length_b 15.1
_cell_length_c 19.445
_cell_angle_alpha 90.08
_cell_angle_beta 90.028
_cell_angle_gamma 89.993
_space_group_name_H-M_alt 'P 1'
_space_group_name_Hall 'P 1'
loop_
    _symmetry_equiv_pos_as_xyz
    x,y,z
loop_
    _atom_site_label
    _atom_site_type_symbol
    _atom_site_fract_x
    _atom_site_fract_y
    _atom_site_fract_z
    _atom_site_occupancy
    N0      N    0.47255   0.71846   0.01574   1.000
    N1      N    0.50038   0.47022   0.74018   1.000
    N2      N    0.52743   0.21844   0.48423   1.000
    N3      N    0.52742   0.28158   0.98419   1.000
    N4      N    0.47255   0.78160   0.51576   1.000
    N5      N    0.50044   0.02975   0.24017   1.000
    N6      N    0.02706   0.28191   0.51509   1.000
    N7      N    0.99740   0.02959   0.26005   1.000
    N8      N    0.49960   0.52982   0.25981   1.000
    N9      N    0.02706   0.21823   0.01522   1.000
    N10     N    0.96949   0.71814   0.48486   1.000
    N11     N    0.49953   0.96880   0.75981   1.000
    N12     N    0.99978   0.96895   0.73994   1.000
    N13     N    0.99739   0.47051   0.76001   1.000
    N14     N    0.99978   0.52952   0.23995   1.000
    N15     N    0.96950   0.78181   0.98475   1.000
    Zr16    Zr   0.17986   0.76777   0.17100   1.000
    O17     O    0.12177   0.84266   0.20410   1.000
    O18     O    0.13163   0.85348   0.19437   1.000
    O19     O    0.12408   0.69230   0.19313   1.000
    O20     O    0.11531   0.77285   0.11140   1.000
    O21     O    0.27428   0.75762   0.12780   1.000
    Zr22    Zr   0.67959   0.76798   0.32955   1.000
    O23     O    0.62384   0.69253   0.30718   1.000
    O24     O    0.61585   0.77290   0.38912   1.000
    O25     O    0.62261   0.84290   0.29627   1.000
    O26     O    0.63199   0.85369   0.30626   1.000
    O27     O    0.77320   0.75775   0.37289   1.000
    Zr28    Zr   0.32050   0.26776   0.17048   1.000
    O29     O    0.22598   0.25761   0.12720   1.000
    O30     O    0.37746   0.34279   0.20374   1.000
    O31     O    0.36806   0.35356   0.19376   1.000
    O32     O    0.37624   0.19236   0.19283   1.000
    O33     O    0.38419   0.27274   0.11088   1.000
    Zr34    Zr   0.67946   0.73229   0.82951   1.000
    O35     O    0.63191   0.64648   0.80623   1.000
    O36     O    0.62373   0.80731   0.80716   1.000
    O37     O    0.77314   0.74244   0.87279   1.000
    O38     O    0.61578   0.72730   0.88909   1.000
    O39     O    0.62251   0.65725   0.79625   1.000
    Zr40    Zr   0.81997   0.26804   0.32894   1.000
    O41     O    0.87510   0.19250   0.30683   1.000
    O42     O    0.87741   0.34280   0.29585   1.000
    O43     O    0.86760   0.35365   0.30561   1.000
    O44     O    0.72559   0.25779   0.37216   1.000
    O45     O    0.88370   0.27308   0.38851   1.000
    Zr46    Zr   0.32037   0.23206   0.67044   1.000
    O47     O    0.22591   0.24229   0.62708   1.000
    O48     O    0.38411   0.22714   0.61087   1.000
    O49     O    0.36798   0.14598   0.69373   1.000
    O50     O    0.37736   0.15677   0.70372   1.000
    O51     O    0.37612   0.30751   0.69281   1.000
    Zr52    Zr   0.17999   0.73200   0.67104   1.000
    O53     O    0.12186   0.65723   0.70413   1.000
    O54     O    0.12417   0.80716   0.69316   1.000
    O55     O    0.13166   0.64639   0.69435   1.000
    O56     O    0.27438   0.74225   0.62782   1.000
    O57     O    0.11541   0.72697   0.61146   1.000
    Zr58    Zr   0.82011   0.23227   0.82897   1.000
    O59     O    0.86764   0.14618   0.80560   1.000
    O60     O    0.88380   0.22719   0.88857   1.000
    O61     O    0.87519   0.30774   0.80684   1.000
    O62     O    0.87751   0.15700   0.79587   1.000
    O63     O    0.72569   0.24242   0.87216   1.000
loop_
    _geom_bond_atom_site_label_1
    _geom_bond_atom_site_label_2
    _geom_bond_distance
    _geom_bond_site_symmetry_2
    _ccdc_geom_bond_type
    Zr16   O17       1.49725      .   S
    N7     O17       3.41550  1_645   S
    Zr16   O18       1.50317      .   S
    N7     O18       3.41066  1_645   S
    Zr16   O19       1.41188      .   S
    N14    O19       3.06583  1_655   S
    Zr16   O20       1.42401      .   S
    N15    O20       3.09010  1_656   S
    Zr16   O21       1.47783      .   S
    N0     O21       3.39294      .   S
    Zr22   O23       1.41159      .   S
    N8     O23       3.06537      .   S
    Zr22   O24       1.41795      .   S
    N4     O24       3.07157      .   S
    Zr22   O25       1.49316      .   S
    N5     O25       3.40450  1_545   S
    Zr22   O26       1.50026      .   S
    N5     O26       3.39825  1_545   S
    Zr22   O27       1.47077      .   S
    N10    O27       3.37363      .   S
    Zr28   O29       1.47918      .   S
    N9     O29       3.39710      .   S
    Zr28   O30       1.49288      .   S
    N8     O30       3.40428      .   S
    Zr28   O31       1.50024      .   S
    N8     O31       3.39781      .   S
    Zr28   O32       1.41161      .   S
    N5     O32       3.06546      .   S
    Zr28   O33       1.41824      .   S
    N3     O33       3.07221  1_556   S
    Zr34   O35       1.50028      .   S
    N1     O35       3.39784      .   S
    Zr34   O36       1.40707      .   S
    N11    O36       3.05194      .   S
    Zr34   O37       1.47023      .   S
    N15    O37       3.37256      .   S
    Zr34   O38       1.41800      .   S
    N0     O38       3.07151  1_554   S
    Zr34   O39       1.49289      .   S
    N1     O39       3.40433      .   S
    Zr40   O41       1.40725      .   S
    N7     O41       3.05174      .   S
    Zr40   O42       1.49316      .   S
    N14    O42       3.40361      .   S
    Zr40   O43       1.49961      .   S
    N14    O43       3.39794      .   S
    Zr40   O44       1.47809      .   S
    N2     O44       3.39361      .   S
    Zr40   O45       1.41735      .   S
    N6     O45       3.06970  1_455   S
    Zr46   O47       1.47976      .   S
    N6     O47       3.39825      .   S
    Zr46   O48       1.41800      .   S
    N2     O48       3.07169      .   S
    Zr46   O49       1.50512      .   S
    N11    O49       3.41149  1_565   S
    Zr46   O50       1.49744      .   S
    N11    O50       3.41852  1_565   S
    Zr46   O51       1.41159      .   S
    N1     O51       3.06538      .   S
    Zr52   O53       1.49751      .   S
    N13    O53       3.41593  1_655   S
    Zr52   O54       1.40712      .   S
    N12    O54       3.05183  1_655   S
    Zr52   O55       1.50320      .   S
    N13    O55       3.41126  1_655   S
    Zr52   O56       1.47811      .   S
    N4     O56       3.39364      .   S
    Zr52   O57       1.42375      .   S
    N10    O57       3.08958  1_655   S
    Zr58   O59       1.50443      .   S
    N12    O59       3.41058  1_565   S
    Zr58   O60       1.41776      .   S
    N9     O60       3.07046  1_454   S
    Zr58   O61       1.40739      .   S
    N13    O61       3.05207      .   S
    Zr58   O62       1.49711      .   S
    N12    O62       3.41725  1_565   S
    Zr58   O63       1.47775      .   S
    N3     O63       3.39255      .   S
