# CIF file generated by openbabel 2.4.90, see http://openbabel.sf.net
data_I
_chemical_name_common ''
_cell_length_a 10.143
_cell_length_b 12.816
_cell_length_c 12.826
_cell_angle_alpha 81.096
_cell_angle_beta 66.763
_cell_angle_gamma 66.789
_space_group_name_H-M_alt 'P 1'
_space_group_name_Hall 'P 1'
loop_
    _symmetry_equiv_pos_as_xyz
    x,y,z
loop_
    _atom_site_label
    _atom_site_type_symbol
    _atom_site_fract_x
    _atom_site_fract_y
    _atom_site_fract_z
    _atom_site_occupancy
    Lv0     Lv   0.24993   0.50004   0.49998   1.000
    Lv1     Lv   0.77615   0.84839   0.59959   1.000
    Lv2     Lv   0.75003   0.49993   0.50003   1.000
    Lv3     Lv   0.62439   0.59930   0.15153   1.000
    Lv4     Lv   0.22380   0.15159   0.40042   1.000
    Lv5     Lv   0.37556   0.40068   0.84848   1.000
