# CIF file generated by openbabel 2.4.90, see http://openbabel.sf.net
data_I
_chemical_name_common ''
_cell_length_a 10.143
_cell_length_b 12.816
_cell_length_c 12.826
_cell_angle_alpha 81.096
_cell_angle_beta 66.763
_cell_angle_gamma 66.789
_space_group_name_H-M_alt 'P 1'
_space_group_name_Hall 'P 1'
loop_
    _symmetry_equiv_pos_as_xyz
    x,y,z
loop_
    _atom_site_label
    _atom_site_type_symbol
    _atom_site_fract_x
    _atom_site_fract_y
    _atom_site_fract_z
    _atom_site_occupancy
    Cd0     Cd   0.88695   0.54892   0.67758   1.000
    Cd1     Cd   0.56383   0.32257   0.54904   1.000
    Cd2     Cd   0.43612   0.67741   0.45097   1.000
    Cd3     Cd   0.11300   0.45106   0.32243   1.000
    C4      C    0.32735   0.90610   0.43899   1.000
    C5      C    0.67260   0.09388   0.56102   1.000
    C6      C    0.23391   0.43930   0.09387   1.000
    C7      C    0.76604   0.56066   0.90614   1.000
    O8      O    0.45939   0.85510   0.44679   1.000
    O9      O    0.76004   0.14553   0.55524   1.000
    O10     O    0.31604   0.44420   0.14548   1.000
    O11     O    0.90627   0.55200   0.85513   1.000
    O12     O    0.54054   0.14488   0.55324   1.000
    O13     O    0.23991   0.85445   0.44477   1.000
    O14     O    0.68391   0.55578   0.85452   1.000
    O15     O    0.09368   0.44797   0.14488   1.000
    Ts16    Ts   0.86553   0.61063   0.65873   1.000
    Ts17    Ts   0.86297   0.51554   0.64881   1.000
    Ts18    Ts   0.97288   0.51558   0.64876   1.000
    Ts19    Ts   0.52364   0.34147   0.61074   1.000
    Ts20    Ts   0.51124   0.35129   0.51564   1.000
    Ts21    Ts   0.62121   0.35126   0.51563   1.000
    Ts22    Ts   0.47631   0.65851   0.38926   1.000
    Ts23    Ts   0.37874   0.64872   0.48438   1.000
    Ts24    Ts   0.48872   0.64869   0.48436   1.000
    Ts25    Ts   0.13442   0.38935   0.34127   1.000
    Ts26    Ts   0.02708   0.48440   0.35124   1.000
    Ts27    Ts   0.13699   0.48444   0.35120   1.000
    Og28    Og   0.30945   0.94823   0.43265   1.000
    Og29    Og   0.69050   0.05175   0.56736   1.000
    Og30    Og   0.25808   0.43295   0.05176   1.000
    Og31    Og   0.74187   0.56702   0.94825   1.000
loop_
    _geom_bond_atom_site_label_1
    _geom_bond_atom_site_label_2
    _geom_bond_distance
    _geom_bond_site_symmetry_2
    _ccdc_geom_bond_type
    C6     O15       1.27556      .   S
    C6     O10       1.27491      .   S
    O15    Cd3       2.36901      .   S
    O10    Cd3       2.37289      .   S
    C4     O13       1.27514      .   S
    C4     O8        1.27530      .   S
    O13    Cd2       2.37168      .   S
    O8     Cd2       2.37073      .   S
    Cd1    O12       2.37076      .   S
    Cd1    O9        2.37165      .   S
    O12    C5        1.27529      .   S
    O9     C5        1.27513      .   S
    Cd0    O14       2.37294      .   S
    Cd0    O11       2.36900      .   S
    O14    C7        1.27490      .   S
    O11    C7        1.27557      .   S
    Cd0    Ts16      0.76019      .   S
    Cd0    Ts17      0.76167      .   S
    Cd0    Ts18      0.76156      .   S
    Cd1    Ts19      0.76033      .   S
    Cd1    Ts20      0.76177      .   S
    Cd1    Ts21      0.76201      .   S
    Cd2    Ts22      0.76034      .   S
    Cd2    Ts23      0.76201      .   S
    Cd2    Ts24      0.76177      .   S
    Cd3    Ts25      0.76018      .   S
    Cd3    Ts26      0.76154      .   S
    Cd3    Ts27      0.76166      .   S
    C4     Og28      0.50192      .   S
    C5     Og29      0.50192      .   S
    C6     Og30      0.50184      .   S
    C7     Og31      0.50184      .   S
