# CIF file generated by openbabel 2.4.90, see http://openbabel.sf.net
data_I
_chemical_name_common ''
_cell_length_a 10.143
_cell_length_b 12.816
_cell_length_c 12.826
_cell_angle_alpha 81.096
_cell_angle_beta 66.763
_cell_angle_gamma 66.789
_space_group_name_H-M_alt 'P 1'
_space_group_name_Hall 'P 1'
loop_
    _symmetry_equiv_pos_as_xyz
    x,y,z
loop_
    _atom_site_label
    _atom_site_type_symbol
    _atom_site_fract_x
    _atom_site_fract_y
    _atom_site_fract_z
    _atom_site_occupancy
    Zr0     Zr   0.11300   0.45106   0.32243   1.000
    Zr1     Zr   0.88695   0.54892   0.67758   1.000
    Zr2     Zr   0.56383   0.32257   0.54904   1.000
    Zr3     Zr   0.43612   0.67741   0.45097   1.000
    Zr4     Zr   0.32735   0.90610   0.43899   1.000
    Zr5     Zr   0.67260   0.09388   0.56102   1.000
    Zr6     Zr   0.23391   0.43930   0.09387   1.000
    Zr7     Zr   0.76604   0.56066   0.90614   1.000
    Zr8     Zr   0.45939   0.85510   0.44679   1.000
    Zr9     Zr   0.76004   0.14553   0.55524   1.000
    Zr10    Zr   0.31604   0.44420   0.14548   1.000
    Zr11    Zr   0.90627   0.55200   0.85513   1.000
    Zr12    Zr   0.54054   0.14488   0.55324   1.000
    Zr13    Zr   0.23991   0.85445   0.44477   1.000
    Zr14    Zr   0.68391   0.55578   0.85452   1.000
    Zr15    Zr   0.09368   0.44797   0.14488   1.000
    O16     O    0.16380   0.44364   0.11937   1.000
    O17     O    0.27498   0.44175   0.11968   1.000
    O18     O    0.10334   0.44951   0.23365   1.000
    O19     O    0.21452   0.44763   0.23396   1.000
    O20     O    0.28363   0.88028   0.44188   1.000
    O21     O    0.39337   0.88060   0.44289   1.000
    O22     O    0.33801   0.76593   0.44787   1.000
    O23     O    0.44776   0.76626   0.44888   1.000
    O24     O    0.55219   0.23372   0.55114   1.000
    O25     O    0.66193   0.23405   0.55214   1.000
    O26     O    0.60657   0.11938   0.55713   1.000
    O27     O    0.71632   0.11970   0.55813   1.000
    O28     O    0.78543   0.55235   0.76605   1.000
    O29     O    0.89661   0.55046   0.76636   1.000
    O30     O    0.72498   0.55822   0.88033   1.000
    O31     O    0.83616   0.55633   0.88064   1.000
    N32     N    0.24993   0.50004   0.49998   1.000
    O33     O    0.44549   0.38719   0.47390   1.000
    O34     O    0.16698   0.52617   0.38715   1.000
    O35     O    0.08029   0.47390   0.61274   1.000
    O36     O    0.30703   0.61286   0.52615   1.000
    N37     N    0.77615   0.84839   0.59959   1.000
    O38     O    0.73780   0.93953   0.58506   1.000
    O39     O    0.81549   0.74493   0.62445   1.000
    N40     N    0.75003   0.49993   0.50003   1.000
    O41     O    0.83298   0.47381   0.61285   1.000
    O42     O    0.91967   0.52607   0.38726   1.000
    O43     O    0.55447   0.61279   0.52610   1.000
    O44     O    0.69293   0.38712   0.47386   1.000
    N45     N    0.62439   0.59930   0.15153   1.000
    O46     O    0.67709   0.58475   0.06042   1.000
    O47     O    0.56040   0.62418   0.25497   1.000
    N48     N    0.22380   0.15159   0.40042   1.000
    O49     O    0.18446   0.25504   0.37556   1.000
    O50     O    0.26215   0.06045   0.41495   1.000
    N51     N    0.37556   0.40068   0.84848   1.000
    O52     O    0.32286   0.41523   0.93959   1.000
    O53     O    0.43955   0.37580   0.74504   1.000
loop_
    _geom_bond_atom_site_label_1
    _geom_bond_atom_site_label_2
    _geom_bond_distance
    _geom_bond_site_symmetry_2
    _ccdc_geom_bond_type
    Zr6    O16       0.63778      .   S
    Zr15   O16       0.63778      .   S
    Zr6    O17       0.63745      .   S
    Zr10   O17       0.63745      .   S
    Zr15   O18       1.18450      .   S
    Zr0    O18       1.18450      .   S
    Zr10   O19       1.18645      .   S
    Zr0    O19       1.18645      .   S
    Zr4    O20       0.63757      .   S
    Zr13   O20       0.63757      .   S
    Zr4    O21       0.63765      .   S
    Zr8    O21       0.63765      .   S
    Zr13   O22       1.18584      .   S
    Zr3    O22       1.18584      .   S
    Zr8    O23       1.18537      .   S
    Zr3    O23       1.18537      .   S
    Zr2    O24       1.18538      .   S
    Zr12   O24       1.18538      .   S
    Zr2    O25       1.18582      .   S
    Zr9    O25       1.18582      .   S
    Zr12   O26       0.63765      .   S
    Zr5    O26       0.63765      .   S
    Zr9    O27       0.63756      .   S
    Zr5    O27       0.63756      .   S
    Zr1    O28       1.18647      .   S
    Zr14   O28       1.18647      .   S
    Zr1    O29       1.18450      .   S
    Zr11   O29       1.18450      .   S
    Zr14   O30       0.63745      .   S
    Zr7    O30       0.63745      .   S
    Zr11   O31       0.63779      .   S
    Zr7    O31       0.63779      .   S
    N32    O33       1.87169      .   S
    Zr2    O33       1.71399      .   S
    N32    O34       1.87155      .   S
    Zr0    O34       1.71374      .   S
    N32    O35       1.87221      .   S
    Zr1    O35       1.71351  1_655   S
    N32    O36       1.87143      .   S
    Zr3    O36       1.71452      .   S
    N37    O38       1.08730      .   S
    Zr5    O38       1.84017  1_545   S
    N37    O39       1.25350      .   S
    Zr1    O39       2.39268      .   S
    N40    O41       1.87155      .   S
    Zr1    O41       1.71375      .   S
    N40    O42       1.87221      .   S
    Zr0    O42       1.71347  1_455   S
    N40    O43       1.87170      .   S
    Zr3    O43       1.71399      .   S
    N40    O44       1.87143      .   S
    Zr2    O44       1.71453      .   S
    N45    O46       1.08726      .   S
    Zr7    O46       1.84000  1_556   S
    N45    O47       1.25361      .   S
    Zr3    O47       2.39300      .   S
    N48    O49       1.25350      .   S
    Zr0    O49       2.39267      .   S
    N48    O50       1.08730      .   S
    Zr4    O50       1.84016  1_565   S
    N51    O52       1.08726      .   S
    Zr6    O52       1.83999  1_554   S
    N51    O53       1.25361      .   S
    Zr2    O53       2.39299      .   S
