# CIF file generated by openbabel 2.4.90, see http://openbabel.sf.net
data_I
_chemical_name_common ''
_cell_length_a 15.137
_cell_length_b 17.67
_cell_length_c 15.41
_cell_angle_alpha 61.016
_cell_angle_beta 89.944
_cell_angle_gamma 89.954
_space_group_name_H-M_alt 'P 1'
_space_group_name_Hall 'P 1'
loop_
    _symmetry_equiv_pos_as_xyz
    x,y,z
loop_
    _atom_site_label
    _atom_site_type_symbol
    _atom_site_fract_x
    _atom_site_fract_y
    _atom_site_fract_z
    _atom_site_occupancy
    La0     La   0.47596   0.95987   0.39972   1.000
    La1     La   0.02041   0.45966   0.89958   1.000
    La2     La   0.52039   0.03869   0.60302   1.000
    La3     La   0.97578   0.53839   0.10298   1.000
    C4      C    0.09799   0.64569   0.92934   1.000
    C5      C    0.00000   0.52974   0.29036   1.000
    C6      C    0.59806   0.85248   0.57332   1.000
    C7      C    0.85620   0.60298   0.88823   1.000
    C8      C    0.46757   0.96828   0.21247   1.000
    C9      C    0.89828   0.35241   0.07308   1.000
    C10     C    0.64015   0.10307   0.38826   1.000
    C11     C    0.02870   0.46790   0.71245   1.000
    C12     C    0.39826   0.14606   0.42940   1.000
    C13     C    0.14013   0.39525   0.11416   1.000
    C14     C    0.52936   0.03018   0.79027   1.000
    O15     O    0.07754   0.66036   0.99904   1.000
    O16     O    0.06684   0.58120   0.92262   1.000
    O17     O    0.39215   0.00000   0.63569   1.000
    O18     O    0.92601   0.47285   0.27783   1.000
    O19     O    0.00000   0.59762   0.21758   1.000
    O20     O    0.57765   0.83763   0.50380   1.000
    O21     O    0.56691   0.91715   0.57978   1.000
    O22     O    0.89238   0.54916   0.86705   1.000
    O23     O    0.87014   0.60870   0.96597   1.000
    O24     O    0.42596   0.02520   0.22511   1.000
    O25     O    0.49942   0.90038   0.28518   1.000
    O26     O    0.91868   0.33754   0.00354   1.000
    O27     O    0.92942   0.41707   0.07949   1.000
    O28     O    0.60399   0.04927   0.36710   1.000
    O29     O    0.62614   0.10878   0.46603   1.000
    O30     O    0.07038   0.52476   0.72497   1.000
    O31     O    0.99672   0.40011   0.78522   1.000
    O32     O    0.41864   0.16090   0.49894   1.000
    O33     O    0.42944   0.08142   0.42290   1.000
    O34     O    0.10396   0.44920   0.13515   1.000
    O35     O    0.12614   0.38937   0.03653   1.000
    O36     O    0.56996   0.00000   0.77794   1.000
    O37     O    0.49881   0.09868   0.71726   1.000
    Ts38    Ts   0.44071   0.93656   0.44538   1.000
    Og39    Og   0.11923   0.66596   0.90294   1.000
    Og40    Og   0.00000   0.52470   0.32527   1.000
    Og41    Og   0.61929   0.83224   0.59974   1.000
    Og42    Og   0.83451   0.62397   0.86273   1.000
    Og43    Og   0.47248   0.97334   0.17753   1.000
    Og44    Og   0.87705   0.33219   0.09953   1.000
    Og45    Og   0.66185   0.12405   0.36275   1.000
    Og46    Og   0.02381   0.47294   0.67754   1.000
    Og47    Og   0.37702   0.16629   0.40296   1.000
    Og48    Og   0.16181   0.37429   0.13968   1.000
    Og49    Og   0.52434   0.02515   0.82517   1.000
loop_
    _geom_bond_atom_site_label_1
    _geom_bond_atom_site_label_2
    _geom_bond_distance
    _geom_bond_site_symmetry_2
    _ccdc_geom_bond_type
    O26    C9        1.25897      .   S
    O26    La1       2.49888  1_654   S
    O35    C13       1.26801      .   S
    O35    La1       2.45376  1_554   S
    C9     O27       1.28348      .   S
    O27    La3       2.44424      .   S
    La3    O34       2.39450  1_655   S
    La3    O19       2.47823  1_655   S
    La3    O18       2.47829      .   S
    La3    O23       2.45344  1_554   S
    La3    O15       2.49759  1_654   S
    C13    O34       1.26919      .   S
    C8     O24       1.27850  1_565   S
    C8     O25       1.27469      .   S
    O19    C5        1.18008      .   S
    O24    La0       2.47750  1_545   S
    O18    C5        1.57883  1_655   S
    O25    La0       2.47837      .   S
    O28    C10       1.26938      .   S
    O28    La0       2.39529  1_545   S
    C10    O29       1.26809      .   S
    La0    O33       2.44487  1_565   S
    La0    O20       2.49984      .   S
    O33    C12       1.28342      .   S
    C12    O32       1.25912      .   S
    O29    La2       2.45258      .   S
    O32    La2       2.50016      .   S
    O20    C6        1.25910      .   S
    C6     O21       1.28349      .   S
    O21    La2       2.44507  1_565   S
    La2    O17       2.03852      .   S
    La2    O37       2.47728      .   S
    C11    O30       1.27831      .   S
    C11    O31       1.27462  1_455   S
    O37    C14       1.27479      .   S
    O30    La1       2.47659      .   S
    O36    C14       0.89185      .   S
    O31    La1       2.47793  1_655   S
    O22    C7        1.26911      .   S
    O22    La1       2.39513  1_655   S
    C7     O23       1.26811      .   S
    La1    O16       2.44414      .   S
    O16    C4        1.28330      .   S
    C4     O15       1.25913      .   S
    O16    La3       2.85540  1_456   S
    O21    La0       2.85312      .   S
    O27    La1       2.84977  1_654   S
    O33    La2       2.85379      .   S
    O36    La2       2.55220      .   S
    La0    Ts38      0.81741      .   S
    C4     Og39      0.50593      .   S
    C5     Og40      0.50093      .   S
    C6     Og41      0.50597      .   S
    C7     Og42      0.50840      .   S
    C8     Og43      0.50656      .   S
    C9     Og44      0.50585      .   S
    C10    Og45      0.50843      .   S
    C11    Og46      0.50646      .   S
    C12    Og47      0.50598      .   S
    C13    Og48      0.50844      .   S
    C14    Og49      0.50658      .   S
