# CIF file generated by openbabel 2.4.90, see http://openbabel.sf.net
data_I
_chemical_name_common ''
_cell_length_a 15.137
_cell_length_b 17.67
_cell_length_c 15.41
_cell_angle_alpha 61.016
_cell_angle_beta 89.944
_cell_angle_gamma 89.954
_space_group_name_H-M_alt 'P 1'
_space_group_name_Hall 'P 1'
loop_
    _symmetry_equiv_pos_as_xyz
    x,y,z
loop_
    _atom_site_label
    _atom_site_type_symbol
    _atom_site_fract_x
    _atom_site_fract_y
    _atom_site_fract_z
    _atom_site_occupancy
    Zr0     Zr   0.97578   0.53839   0.10298   1.000
    Zr1     Zr   0.47596   0.95987   0.39972   1.000
    Zr2     Zr   0.02041   0.45966   0.89958   1.000
    Zr3     Zr   0.52039   0.03869   0.60302   1.000
    Zr4     Zr   0.09799   0.64569   0.92934   1.000
    Zr5     Zr   0.00000   0.52974   0.29036   1.000
    Zr6     Zr   0.59806   0.85248   0.57332   1.000
    Zr7     Zr   0.85620   0.60298   0.88823   1.000
    Zr8     Zr   0.46757   0.96828   0.21247   1.000
    Zr9     Zr   0.89828   0.35241   0.07308   1.000
    Zr10    Zr   0.64015   0.10307   0.38826   1.000
    Zr11    Zr   0.02870   0.46790   0.71245   1.000
    Zr12    Zr   0.39826   0.14606   0.42940   1.000
    Zr13    Zr   0.14013   0.39525   0.11416   1.000
    Zr14    Zr   0.52936   0.03018   0.79027   1.000
    Zr15    Zr   0.07754   0.66036   0.99904   1.000
    Zr16    Zr   0.06684   0.58120   0.92262   1.000
    Zr17    Zr   0.39215   0.00000   0.63569   1.000
    Zr18    Zr   0.92601   0.47285   0.27783   1.000
    Zr19    Zr   0.00000   0.59762   0.21758   1.000
    Zr20    Zr   0.57765   0.83763   0.50380   1.000
    Zr21    Zr   0.56691   0.91715   0.57978   1.000
    Zr22    Zr   0.89238   0.54916   0.86705   1.000
    Zr23    Zr   0.87014   0.60870   0.96597   1.000
    Zr24    Zr   0.42596   0.02520   0.22511   1.000
    Zr25    Zr   0.49942   0.90038   0.28518   1.000
    Zr26    Zr   0.91868   0.33754   0.00354   1.000
    Zr27    Zr   0.92942   0.41707   0.07949   1.000
    Zr28    Zr   0.60399   0.04927   0.36710   1.000
    Zr29    Zr   0.62614   0.10878   0.46603   1.000
    Zr30    Zr   0.07038   0.52476   0.72497   1.000
    Zr31    Zr   0.99672   0.40011   0.78522   1.000
    Zr32    Zr   0.41864   0.16090   0.49894   1.000
    Zr33    Zr   0.42944   0.08142   0.42290   1.000
    Zr34    Zr   0.10396   0.44920   0.13515   1.000
    Zr35    Zr   0.12614   0.38937   0.03653   1.000
    Zr36    Zr   0.56996   0.00000   0.77794   1.000
    Zr37    Zr   0.49881   0.09868   0.71726   1.000
    O38     O    0.90848   0.34498   0.03831   1.000
    O39     O    0.96954   0.39860   0.95156   1.000
    O40     O    0.13313   0.39231   0.07535   1.000
    O41     O    0.07328   0.42451   0.96806   1.000
    O42     O    0.91385   0.38474   0.07628   1.000
    O43     O    0.95260   0.47773   0.09123   1.000
    O44     O    0.03987   0.49379   0.11907   1.000
    O45     O    0.98789   0.56800   0.16028   1.000
    O46     O    0.95090   0.50562   0.19040   1.000
    O47     O    0.92296   0.57355   0.03448   1.000
    O48     O    0.02666   0.59937   0.05101   1.000
    O49     O    0.12205   0.42223   0.12466   1.000
    O50     O    0.44677   0.99674   0.21879   1.000
    O51     O    0.48350   0.93433   0.24882   1.000
    O52     O    0.00000   0.56368   0.25397   1.000
    O53     O    0.45096   0.99253   0.31241   1.000
    O54     O    0.96301   0.50130   0.28409   1.000
    O55     O    0.48769   0.93013   0.34245   1.000
    O56     O    0.62207   0.07617   0.37768   1.000
    O57     O    0.53998   0.00457   0.38341   1.000
    O58     O    0.63315   0.10592   0.42715   1.000
    O59     O    0.45270   0.02064   0.41131   1.000
    O60     O    0.52680   0.89875   0.45176   1.000
    O61     O    0.41385   0.11374   0.42615   1.000
    O62     O    0.40845   0.15348   0.46417   1.000
    O63     O    0.57327   0.07373   0.53452   1.000
    O64     O    0.46952   0.09979   0.55098   1.000
    O65     O    0.58785   0.84506   0.53856   1.000
    O66     O    0.58248   0.88482   0.57655   1.000
    O67     O    0.54365   0.97792   0.59140   1.000
    O68     O    0.45627   0.01935   0.61935   1.000
    O69     O    0.50960   0.06869   0.66014   1.000
    O70     O    0.04954   0.49633   0.71871   1.000
    O71     O    0.01271   0.43401   0.74884   1.000
    O72     O    0.51409   0.06443   0.75376   1.000
    O73     O    0.04540   0.49221   0.81228   1.000
    O74     O    0.54966   0.01509   0.78411   1.000
    O75     O    0.00857   0.42989   0.84240   1.000
    O76     O    0.87429   0.57607   0.87764   1.000
    O77     O    0.95639   0.50441   0.88332   1.000
    O78     O    0.86317   0.60584   0.92710   1.000
    O79     O    0.04362   0.52043   0.91110   1.000
    O80     O    0.08241   0.61345   0.92598   1.000
    O81     O    0.08776   0.65302   0.96419   1.000
    O82     O    0.02131   0.55980   0.01280   1.000
    O83     O    0.52143   0.93851   0.48975   1.000
    O84     O    0.97492   0.43836   0.98953   1.000
    O85     O    0.47492   0.06006   0.51296   1.000
    O86     O    0.54518   0.01935   0.69048   1.000
    N87     N    0.76993   0.22898   0.23198   1.000
    O88     O    0.81818   0.27553   0.17237   1.000
    O89     O    0.72131   0.18176   0.29099   1.000
    N90     N    0.26987   0.26946   0.27051   1.000
    O91     O    0.22126   0.31663   0.21148   1.000
    O92     O    0.31814   0.22293   0.33013   1.000
    N93     N    0.99945   0.49882   0.50140   1.000
    O94     O    0.99972   0.51050   0.42206   1.000
    O95     O    0.01041   0.48714   0.58074   1.000
    N96     N    0.23795   0.77247   0.75530   1.000
    O97     O    0.18390   0.72428   0.82252   1.000
    O98     O    0.33052   0.84869   0.61175   1.000
    N99     N    0.72645   0.72895   0.73207   1.000
    O100    O    0.67818   0.77553   0.67251   1.000
    O101    O    0.77506   0.68171   0.79103   1.000
    N102    N    0.49829   0.00296   0.00132   1.000
    O103    O    0.48662   0.98942   0.08070   1.000
    O104    O    0.51006   0.01280   0.92197   1.000
    N105    N    0.23393   0.00000   0.73347   1.000
loop_
    _geom_bond_atom_site_label_1
    _geom_bond_atom_site_label_2
    _geom_bond_distance
    _geom_bond_site_symmetry_2
    _ccdc_geom_bond_type
    Zr26   O38       0.62949      .   S
    Zr9    O38       0.62949      .   S
    Zr26   O39       1.24944  1_554   S
    Zr2    O39       1.24944  1_455   S
    Zr35   O40       0.63401      .   S
    Zr13   O40       0.63401      .   S
    Zr35   O41       1.22688  1_554   S
    Zr2    O41       1.22688      .   S
    Zr9    O42       0.64174      .   S
    Zr27   O42       0.64174      .   S
    Zr27   O43       1.22212      .   S
    Zr0    O43       1.22212      .   S
    Zr0    O44       1.19725  1_655   S
    Zr34   O44       1.19725      .   S
    Zr0    O45       1.23911      .   S
    Zr19   O45       1.23911  1_455   S
    Zr0    O46       1.23915      .   S
    Zr18   O46       1.23915      .   S
    Zr0    O47       1.22672      .   S
    Zr23   O47       1.22672  1_556   S
    Zr0    O48       1.24879  1_655   S
    Zr15   O48       1.24879  1_556   S
    Zr13   O49       0.63459      .   S
    Zr34   O49       0.63459      .   S
    Zr8    O50       0.63925      .   S
    Zr24   O50       0.63925  1_545   S
    Zr8    O51       0.63735      .   S
    Zr25   O51       0.63735      .   S
    Zr19   O52       0.59004      .   S
    Zr5    O52       0.59004      .   S
    Zr24   O53       1.23875  1_545   S
    Zr1    O53       1.23875      .   S
    Zr18   O54       0.78942      .   S
    Zr5    O54       0.78942  1_455   S
    Zr25   O55       1.23919      .   S
    Zr1    O55       1.23919      .   S
    Zr28   O56       0.63469      .   S
    Zr10   O56       0.63469      .   S
    Zr28   O57       1.19764      .   S
    Zr1    O57       1.19764  1_565   S
    Zr10   O58       0.63405      .   S
    Zr29   O58       0.63405      .   S
    Zr1    O59       1.22243  1_565   S
    Zr33   O59       1.22243      .   S
    Zr1    O60       1.24992      .   S
    Zr20   O60       1.24992      .   S
    Zr33   O61       0.64171      .   S
    Zr12   O61       0.64171      .   S
    Zr12   O62       0.62956      .   S
    Zr32   O62       0.62956      .   S
    Zr29   O63       1.22629      .   S
    Zr3    O63       1.22629      .   S
    Zr32   O64       1.25008      .   S
    Zr3    O64       1.25008      .   S
    Zr20   O65       0.62955      .   S
    Zr6    O65       0.62955      .   S
    Zr6    O66       0.64175      .   S
    Zr21   O66       0.64175      .   S
    Zr21   O67       1.22253      .   S
    Zr3    O67       1.22253  1_545   S
    Zr3    O68       1.01926      .   S
    Zr17   O68       1.01926      .   S
    Zr3    O69       1.23864      .   S
    Zr37   O69       1.23864      .   S
    Zr11   O70       0.63915      .   S
    Zr30   O70       0.63915      .   S
    Zr11   O71       0.63731      .   S
    Zr31   O71       0.63731  1_655   S
    Zr37   O72       0.63739      .   S
    Zr14   O72       0.63739      .   S
    Zr30   O73       1.23830      .   S
    Zr2    O73       1.23830      .   S
    Zr36   O74       0.44592      .   S
    Zr14   O74       0.44592      .   S
    Zr31   O75       1.23896  1_655   S
    Zr2    O75       1.23896      .   S
    Zr22   O76       0.63455      .   S
    Zr7    O76       0.63455      .   S
    Zr22   O77       1.19757      .   S
    Zr2    O77       1.19757  1_455   S
    Zr7    O78       0.63405      .   S
    Zr23   O78       0.63405      .   S
    Zr2    O79       1.22207      .   S
    Zr16   O79       1.22207      .   S
    Zr16   O80       0.64165      .   S
    Zr4    O80       0.64165      .   S
    Zr4    O81       0.62957      .   S
    Zr15   O81       0.62957      .   S
    Zr16   O82       1.42770  1_556   S
    Zr0    O82       1.42770  1_655   S
    Zr21   O83       1.42656      .   S
    Zr1    O83       1.42656      .   S
    Zr27   O84       1.42489  1_554   S
    Zr2    O84       1.42489  1_455   S
    Zr33   O85       1.42689      .   S
    Zr3    O85       1.42689      .   S
    Zr36   O86       1.27610      .   S
    Zr3    O86       1.27610      .   S
    N87    O88       1.14944      .   S
    Zr9    O88       1.90818      .   S
    N87    O89       1.15285      .   S
    Zr10   O89       1.91539      .   S
    N90    O91       1.15289      .   S
    Zr13   O91       1.91545      .   S
    N90    O92       1.14981      .   S
    Zr12   O92       1.90875      .   S
    N93    O94       1.13700      .   S
    Zr5    O94       1.88839  1_455   S
    N93    O95       1.14921  1_655   S
    Zr11   O95       1.90890      .   S
    N96    O97       1.26963      .   S
    Zr4    O97       2.02805      .   S
    N96    O98       2.40419      .   S
    Zr1    O98       3.62692      .   S
    N99    O100      1.14977      .   S
    Zr6    O100      1.90869      .   S
    N99    O101      1.15279      .   S
    Zr7    O101      1.91531      .   S
    N102   O103      1.14037  1_545   S
    Zr8    O103      1.89999      .   S
    N102   O104      1.16224  1_554   S
    Zr14   O104      1.92199      .   S
