# CIF file generated by openbabel 2.4.90, see http://openbabel.sf.net
data_I
_chemical_name_common 'VESTA_phase_1'
_cell_length_a 18.3
_cell_length_b 17.826
_cell_length_c 15.734
_cell_angle_alpha 90
_cell_angle_beta 90
_cell_angle_gamma 90
_space_group_name_H-M_alt 'P 1'
_space_group_name_Hall 'P 1'
loop_
    _symmetry_equiv_pos_as_xyz
    x,y,z
loop_
    _atom_site_label
    _atom_site_type_symbol
    _atom_site_fract_x
    _atom_site_fract_y
    _atom_site_fract_z
    _atom_site_occupancy
    Cd0     Cd   0.00000   0.25001   0.04646   1.000
    Cd1     Cd   0.50000   0.25001   0.04646   1.000
    Cd2     Cd   0.00000   0.75002   0.45353   1.000
    Cd3     Cd   0.50000   0.75002   0.45353   1.000
    Cd4     Cd   1.00000   0.75002   0.95352   1.000
    Cd5     Cd   0.50000   0.75002   0.95352   1.000
    Cd6     Cd   1.00000   0.25001   0.54645   1.000
    Cd7     Cd   0.50000   0.25001   0.54645   1.000
    H8      H    0.48732   0.42125   0.97794   1.000
    H9      H    0.98732   0.42125   0.97794   1.000
    H10     H    0.42144   0.50472   0.87628   1.000
    H11     H    0.92144   0.50472   0.87628   1.000
    H12     H    0.32852   0.30404   0.76462   1.000
    H13     H    0.82852   0.30404   0.76462   1.000
    H14     H    0.39369   0.23034   0.87639   1.000
    H15     H    0.89369   0.23034   0.87639   1.000
    H16     H    0.33417   0.43566   0.68441   1.000
    H17     H    0.83417   0.43566   0.68441   1.000
    H18     H    0.23037   0.45966   0.83585   1.000
    H19     H    0.73037   0.45966   0.83585   1.000
    H20     H    0.26175   0.36260   0.62725   1.000
    H21     H    0.76175   0.36259   0.62725   1.000
    H22     H    0.16602   0.28464   0.55910   1.000
    H23     H    0.66602   0.28464   0.55910   1.000
    H24     H    0.00717   0.35659   0.72750   1.000
    H25     H    0.50717   0.35659   0.72750   1.000
    H26     H    0.09771   0.43200   0.81001   1.000
    H27     H    0.59771   0.43200   0.81001   1.000
    H28     H    0.01268   0.07876   0.97794   1.000
    H29     H    0.51268   0.07876   0.97794   1.000
    H30     H    0.07856   0.99529   0.87628   1.000
    H31     H    0.57857   0.99529   0.87628   1.000
    H32     H    0.17148   0.19597   0.76462   1.000
    H33     H    0.67148   0.19597   0.76462   1.000
    H34     H    0.10631   0.26967   0.87639   1.000
    H35     H    0.60631   0.26967   0.87639   1.000
    H36     H    0.16583   0.06436   0.68441   1.000
    H37     H    0.66583   0.06435   0.68441   1.000
    H38     H    0.26964   0.04035   0.83580   1.000
    H39     H    0.76964   0.04035   0.83580   1.000
    H40     H    0.23825   0.13742   0.62725   1.000
    H41     H    0.73825   0.13742   0.62725   1.000
    H42     H    0.33398   0.21538   0.55910   1.000
    H43     H    0.83398   0.21538   0.55910   1.000
    H44     H    0.49283   0.14343   0.72750   1.000
    H45     H    0.99283   0.14343   0.72750   1.000
    H46     H    0.40229   0.06802   0.81001   1.000
    H47     H    0.90230   0.06802   0.81001   1.000
    H48     H    0.48732   0.57877   0.52203   1.000
    H49     H    0.98732   0.57877   0.52203   1.000
    H50     H    0.42144   0.49530   0.62300   1.000
    H51     H    0.92144   0.49530   0.62369   1.000
    H52     H    0.32852   0.69599   0.73535   1.000
    H53     H    0.82852   0.69599   0.73535   1.000
    H54     H    0.39369   0.76969   0.62350   1.000
    H55     H    0.89369   0.76969   0.62359   1.000
    H56     H    0.33417   0.56437   0.81557   1.000
    H57     H    0.83417   0.56437   0.81557   1.000
    H58     H    0.23037   0.54036   0.66412   1.000
    H59     H    0.73037   0.54036   0.66410   1.000
    H60     H    0.26175   0.63743   0.87272   1.000
    H61     H    0.76175   0.63743   0.87272   1.000
    H62     H    0.16602   0.71539   0.94087   1.000
    H63     H    0.66602   0.71539   0.94087   1.000
    H64     H    0.00717   0.64344   0.77247   1.000
    H65     H    0.50717   0.64344   0.77247   1.000
    H66     H    0.09771   0.56803   0.68996   1.000
    H67     H    0.59771   0.56803   0.68996   1.000
    H68     H    0.01268   0.92126   0.52203   1.000
    H69     H    0.51268   0.92126   0.52203   1.000
    H70     H    0.07856   0.00000   0.62300   1.000
    H71     H    0.57857   0.00000   0.62300   1.000
    H72     H    0.17148   0.80405   0.73535   1.000
    H73     H    0.67148   0.80405   0.73535   1.000
    H74     H    0.10631   0.73035   0.62350   1.000
    H75     H    0.60632   0.73035   0.62350   1.000
    H76     H    0.16583   0.93567   0.81557   1.000
    H77     H    0.66583   0.93567   0.81557   1.000
    H78     H    0.26963   0.95967   0.66412   1.000
    H79     H    0.76964   0.95967   0.66412   1.000
    H80     H    0.23825   0.86261   0.87272   1.000
    H81     H    0.73825   0.86261   0.87272   1.000
    H82     H    0.33398   0.78465   0.94087   1.000
    H83     H    0.83398   0.78465   0.94087   1.000
    H84     H    0.49283   0.85660   0.77247   1.000
    H85     H    0.99283   0.85660   0.77247   1.000
    H86     H    0.40229   0.93201   0.68996   1.000
    H87     H    0.90230   0.93201   0.68996   1.000
    H88     H    0.01268   0.57877   0.02204   1.000
    H89     H    0.51268   0.57878   0.02204   1.000
    H90     H    0.07857   0.49530   0.12370   1.000
    H91     H    0.57857   0.49531   0.12370   1.000
    H92     H    0.17148   0.69599   0.23536   1.000
    H93     H    0.67148   0.69599   0.23536   1.000
    H94     H    0.10631   0.76969   0.12359   1.000
    H95     H    0.60632   0.76969   0.12359   1.000
    H96     H    0.16583   0.56436   0.31558   1.000
    H97     H    0.66583   0.56437   0.31557   1.000
    H98     H    0.26964   0.54036   0.16412   1.000
    H99     H    0.76964   0.54037   0.16413   1.000
    H100    H    0.23825   0.63743   0.37273   1.000
    H101    H    0.73825   0.63743   0.37270   1.000
    H102    H    0.33398   0.71539   0.44088   1.000
    H103    H    0.83398   0.71539   0.44088   1.000
    H104    H    0.49283   0.64344   0.27248   1.000
    H105    H    0.99283   0.64344   0.27248   1.000
    H106    H    0.40230   0.56803   0.18997   1.000
    H107    H    0.90230   0.56803   0.18997   1.000
    H108    H    0.48732   0.92126   0.02204   1.000
    H109    H    0.98733   0.92127   0.02204   1.000
    H110    H    0.42144   0.00000   0.12370   1.000
    H111    H    0.92144   0.00000   0.12370   1.000
    H112    H    0.32852   0.80405   0.23536   1.000
    H113    H    0.82852   0.80405   0.23536   1.000
    H114    H    0.39369   0.73035   0.12359   1.000
    H115    H    0.89369   0.73035   0.12359   1.000
    H116    H    0.33417   0.93567   0.31557   1.000
    H117    H    0.83417   0.93567   0.31550   1.000
    H118    H    0.23037   0.95967   0.16412   1.000
    H119    H    0.73037   0.95967   0.16412   1.000
    H120    H    0.26175   0.86261   0.37270   1.000
    H121    H    0.76175   0.86261   0.37273   1.000
    H122    H    0.16602   0.78465   0.44088   1.000
    H123    H    0.66602   0.78465   0.44088   1.000
    H124    H    0.00717   0.85660   0.27248   1.000
    H125    H    0.50717   0.85660   0.27248   1.000
    H126    H    0.09771   0.93201   0.18997   1.000
    H127    H    0.59771   0.93201   0.18997   1.000
    H128    H    0.01268   0.42125   0.47795   1.000
    H129    H    0.51268   0.42125   0.47790   1.000
    H130    H    0.07856   0.50472   0.37628   1.000
    H131    H    0.57857   0.50472   0.37628   1.000
    H132    H    0.17148   0.30404   0.26460   1.000
    H133    H    0.67148   0.30404   0.26463   1.000
    H134    H    0.10631   0.23034   0.37639   1.000
    H135    H    0.60631   0.23034   0.37639   1.000
    H136    H    0.16583   0.43565   0.18442   1.000
    H137    H    0.66583   0.43566   0.18441   1.000
    H138    H    0.26964   0.45966   0.33586   1.000
    H139    H    0.76964   0.45966   0.33586   1.000
    H140    H    0.23825   0.36259   0.12726   1.000
    H141    H    0.73825   0.36260   0.12726   1.000
    H142    H    0.33398   0.28464   0.05910   1.000
    H143    H    0.83398   0.28463   0.05911   1.000
    H144    H    0.49283   0.35659   0.22751   1.000
    H145    H    0.99283   0.35658   0.22751   1.000
    H146    H    0.40229   0.43200   0.31002   1.000
    H147    H    0.90230   0.43200   0.31002   1.000
    H148    H    0.48732   0.07876   0.47795   1.000
    H149    H    0.98732   0.07876   0.47795   1.000
    H150    H    0.42144   0.99529   0.37628   1.000
    H151    H    0.92144   0.99529   0.37628   1.000
    H152    H    0.32852   0.19597   0.26460   1.000
    H153    H    0.82852   0.19597   0.26460   1.000
    H154    H    0.39369   0.26967   0.37639   1.000
    H155    H    0.89369   0.26968   0.37639   1.000
    H156    H    0.33417   0.06436   0.18441   1.000
    H157    H    0.83417   0.06436   0.18442   1.000
    H158    H    0.23037   0.04035   0.33586   1.000
    H159    H    0.73037   0.04035   0.33586   1.000
    H160    H    0.26175   0.13742   0.12726   1.000
    H161    H    0.76175   0.13742   0.12726   1.000
    H162    H    0.16602   0.21538   0.05911   1.000
    H163    H    0.66602   0.21538   0.05910   1.000
    H164    H    0.00717   0.14343   0.22751   1.000
    H165    H    0.50717   0.14343   0.22751   1.000
    H166    H    0.09771   0.06802   0.31002   1.000
    H167    H    0.59771   0.06802   0.31002   1.000
    C168    C    0.45033   0.39820   0.93018   1.000
    C169    C    0.95034   0.39820   0.93018   1.000
    C170    C    0.41433   0.44403   0.87191   1.000
    C171    C    0.91433   0.44403   0.87191   1.000
    C172    C    0.36849   0.41142   0.81098   1.000
    C173    C    0.86850   0.41142   0.81090   1.000
    C174    C    0.36227   0.33278   0.81151   1.000
    C175    C    0.86227   0.33278   0.81151   1.000
    C176    C    0.39905   0.29123   0.87282   1.000
    C177    C    0.89905   0.29123   0.87282   1.000
    C178    C    0.32395   0.45644   0.74927   1.000
    C179    C    0.82396   0.45644   0.74927   1.000
    C180    C    0.24001   0.45836   0.76680   1.000
    C181    C    0.74001   0.45836   0.76680   1.000
    C182    C    0.18769   0.40566   0.72481   1.000
    C183    C    0.68770   0.40566   0.72481   1.000
    C184    C    0.20639   0.36300   0.65320   1.000
    C185    C    0.70639   0.36300   0.65320   1.000
    C186    C    0.15298   0.31993   0.61361   1.000
    C187    C    0.65298   0.31992   0.61361   1.000
    C188    C    0.06446   0.35878   0.70846   1.000
    C189    C    0.56446   0.35878   0.70846   1.000
    C190    C    0.11506   0.40148   0.75340   1.000
    C191    C    0.61506   0.40148   0.75343   1.000
    C192    C    0.04967   0.10181   0.93018   1.000
    C193    C    0.54967   0.10181   0.93018   1.000
    C194    C    0.08566   0.05598   0.87191   1.000
    C195    C    0.58566   0.05598   0.87191   1.000
    C196    C    0.13151   0.08859   0.81098   1.000
    C197    C    0.63151   0.08859   0.81098   1.000
    C198    C    0.13773   0.16723   0.81150   1.000
    C199    C    0.63773   0.16723   0.81150   1.000
    C200    C    0.10096   0.20879   0.87282   1.000
    C201    C    0.60096   0.20879   0.87282   1.000
    C202    C    0.17605   0.04358   0.74927   1.000
    C203    C    0.67605   0.04358   0.74927   1.000
    C204    C    0.25999   0.04165   0.76680   1.000
    C205    C    0.75999   0.04165   0.76680   1.000
    C206    C    0.31231   0.09435   0.72480   1.000
    C207    C    0.81231   0.09435   0.72480   1.000
    C208    C    0.29361   0.13702   0.65320   1.000
    C209    C    0.79361   0.13702   0.65320   1.000
    C210    C    0.34703   0.18009   0.61361   1.000
    C211    C    0.84703   0.18009   0.61361   1.000
    C212    C    0.43554   0.14123   0.70846   1.000
    C213    C    0.93554   0.14123   0.70846   1.000
    C214    C    0.38494   0.09854   0.75344   1.000
    C215    C    0.88494   0.09854   0.75344   1.000
    C216    C    0.45033   0.60182   0.56979   1.000
    C217    C    0.95033   0.60182   0.56979   1.000
    C218    C    0.41434   0.55600   0.62806   1.000
    C219    C    0.91435   0.55600   0.62806   1.000
    C220    C    0.36849   0.58860   0.68899   1.000
    C221    C    0.86849   0.58860   0.68890   1.000
    C222    C    0.36227   0.66724   0.68847   1.000
    C223    C    0.86227   0.66724   0.68847   1.000
    C224    C    0.39904   0.70880   0.62715   1.000
    C225    C    0.89904   0.70880   0.62715   1.000
    C226    C    0.32394   0.54360   0.75070   1.000
    C227    C    0.82394   0.54360   0.75070   1.000
    C228    C    0.24000   0.54166   0.73317   1.000
    C229    C    0.74000   0.54166   0.73317   1.000
    C230    C    0.18769   0.59436   0.77510   1.000
    C231    C    0.68770   0.59436   0.77518   1.000
    C232    C    0.20639   0.63704   0.84677   1.000
    C233    C    0.70639   0.63704   0.84677   1.000
    C234    C    0.15297   0.68010   0.88637   1.000
    C235    C    0.65297   0.68010   0.88637   1.000
    C236    C    0.06446   0.64124   0.79151   1.000
    C237    C    0.56446   0.64124   0.79151   1.000
    C238    C    0.11506   0.59856   0.74653   1.000
    C239    C    0.61506   0.59856   0.74653   1.000
    C240    C    0.04967   0.89822   0.56979   1.000
    C241    C    0.54967   0.89822   0.56979   1.000
    C242    C    0.08566   0.94404   0.62806   1.000
    C243    C    0.58566   0.94404   0.62806   1.000
    C244    C    0.13151   0.91143   0.68899   1.000
    C245    C    0.63151   0.91143   0.68899   1.000
    C246    C    0.13773   0.83279   0.68847   1.000
    C247    C    0.63773   0.83279   0.68847   1.000
    C248    C    0.10096   0.79124   0.62715   1.000
    C249    C    0.60096   0.79124   0.62715   1.000
    C250    C    0.17605   0.95645   0.75070   1.000
    C251    C    0.67605   0.95645   0.75070   1.000
    C252    C    0.25999   0.95838   0.73317   1.000
    C253    C    0.75999   0.95838   0.73317   1.000
    C254    C    0.31230   0.90567   0.77517   1.000
    C255    C    0.81231   0.90567   0.77517   1.000
    C256    C    0.29361   0.86301   0.84677   1.000
    C257    C    0.79362   0.86301   0.84677   1.000
    C258    C    0.34703   0.81994   0.88636   1.000
    C259    C    0.84703   0.81994   0.88636   1.000
    C260    C    0.43554   0.85880   0.79151   1.000
    C261    C    0.93554   0.85880   0.79151   1.000
    C262    C    0.38494   0.90149   0.74654   1.000
    C263    C    0.88494   0.90149   0.74654   1.000
    C264    C    0.04967   0.60182   0.06979   1.000
    C265    C    0.54967   0.60182   0.06980   1.000
    C266    C    0.08565   0.55600   0.12807   1.000
    C267    C    0.58567   0.55600   0.12800   1.000
    C268    C    0.13151   0.58860   0.18899   1.000
    C269    C    0.63151   0.58861   0.18900   1.000
    C270    C    0.13773   0.66724   0.18848   1.000
    C271    C    0.63774   0.66725   0.18847   1.000
    C272    C    0.10096   0.70880   0.12716   1.000
    C273    C    0.60096   0.70880   0.12716   1.000
    C274    C    0.17606   0.54360   0.25071   1.000
    C275    C    0.67605   0.54358   0.25070   1.000
    C276    C    0.26000   0.54166   0.23317   1.000
    C277    C    0.75999   0.54166   0.23318   1.000
    C278    C    0.31231   0.59436   0.27518   1.000
    C279    C    0.81231   0.59437   0.27517   1.000
    C280    C    0.29361   0.63704   0.34678   1.000
    C281    C    0.79362   0.63702   0.34678   1.000
    C282    C    0.34703   0.68010   0.38637   1.000
    C283    C    0.84703   0.68010   0.38637   1.000
    C284    C    0.43554   0.64123   0.29152   1.000
    C285    C    0.93554   0.64125   0.29151   1.000
    C286    C    0.38494   0.59856   0.24654   1.000
    C287    C    0.88495   0.59855   0.24650   1.000
    C288    C    0.45033   0.89822   0.06980   1.000
    C289    C    0.95033   0.89822   0.06979   1.000
    C290    C    0.41434   0.94404   0.12807   1.000
    C291    C    0.91435   0.94404   0.12807   1.000
    C292    C    0.36849   0.91143   0.18900   1.000
    C293    C    0.86849   0.91144   0.18899   1.000
    C294    C    0.36227   0.83279   0.18840   1.000
    C295    C    0.86228   0.83279   0.18848   1.000
    C296    C    0.39904   0.79124   0.12716   1.000
    C297    C    0.89904   0.79124   0.12716   1.000
    C298    C    0.32395   0.95644   0.25070   1.000
    C299    C    0.82394   0.95644   0.25071   1.000
    C300    C    0.24001   0.95838   0.23317   1.000
    C301    C    0.74001   0.95838   0.23317   1.000
    C302    C    0.18769   0.90568   0.27518   1.000
    C303    C    0.68770   0.90568   0.27518   1.000
    C304    C    0.20639   0.86301   0.34678   1.000
    C305    C    0.70639   0.86300   0.34678   1.000
    C306    C    0.15297   0.81994   0.38637   1.000
    C307    C    0.65297   0.81994   0.38637   1.000
    C308    C    0.06446   0.85880   0.29152   1.000
    C309    C    0.56446   0.85880   0.29152   1.000
    C310    C    0.11506   0.90148   0.24654   1.000
    C311    C    0.61506   0.90148   0.24654   1.000
    C312    C    0.04966   0.39821   0.43018   1.000
    C313    C    0.54967   0.39820   0.43019   1.000
    C314    C    0.08567   0.44403   0.37192   1.000
    C315    C    0.58566   0.44403   0.37190   1.000
    C316    C    0.13151   0.41142   0.31098   1.000
    C317    C    0.63151   0.41142   0.31099   1.000
    C318    C    0.13774   0.33278   0.31152   1.000
    C319    C    0.63773   0.33278   0.31150   1.000
    C320    C    0.10095   0.29123   0.37283   1.000
    C321    C    0.60096   0.29123   0.37283   1.000
    C322    C    0.17605   0.45645   0.24928   1.000
    C323    C    0.67606   0.45643   0.24928   1.000
    C324    C    0.25999   0.45836   0.26681   1.000
    C325    C    0.76000   0.45836   0.26681   1.000
    C326    C    0.31231   0.40566   0.22481   1.000
    C327    C    0.81231   0.40567   0.22480   1.000
    C328    C    0.29361   0.36300   0.15320   1.000
    C329    C    0.79361   0.36299   0.15321   1.000
    C330    C    0.34702   0.31992   0.11362   1.000
    C331    C    0.84703   0.31993   0.11361   1.000
    C332    C    0.43554   0.35878   0.20847   1.000
    C333    C    0.93554   0.35879   0.20847   1.000
    C334    C    0.38495   0.40148   0.25344   1.000
    C335    C    0.88494   0.40147   0.25345   1.000
    C336    C    0.45033   0.10181   0.43019   1.000
    C337    C    0.95034   0.10181   0.43018   1.000
    C338    C    0.41434   0.05598   0.37192   1.000
    C339    C    0.91434   0.05598   0.37192   1.000
    C340    C    0.36849   0.08859   0.31099   1.000
    C341    C    0.86850   0.08860   0.31098   1.000
    C342    C    0.36227   0.16723   0.31151   1.000
    C343    C    0.86227   0.16724   0.31150   1.000
    C344    C    0.39904   0.20879   0.37283   1.000
    C345    C    0.89905   0.20879   0.37283   1.000
    C346    C    0.32395   0.04358   0.24928   1.000
    C347    C    0.82396   0.04357   0.24928   1.000
    C348    C    0.24001   0.04165   0.26681   1.000
    C349    C    0.74001   0.04165   0.26681   1.000
    C350    C    0.18770   0.09435   0.22481   1.000
    C351    C    0.68770   0.09435   0.22481   1.000
    C352    C    0.20639   0.13701   0.15320   1.000
    C353    C    0.70639   0.13701   0.15320   1.000
    C354    C    0.15297   0.18009   0.11360   1.000
    C355    C    0.65298   0.18009   0.11362   1.000
    C356    C    0.06446   0.14123   0.20847   1.000
    C357    C    0.56446   0.14123   0.20847   1.000
    C358    C    0.11506   0.09854   0.25344   1.000
    C359    C    0.61506   0.09854   0.25344   1.000
    N360    N    0.44261   0.32307   0.93181   1.000
    N361    N    0.94261   0.32307   0.93181   1.000
    N362    N    0.08274   0.31843   0.63928   1.000
    N363    N    0.58274   0.31843   0.63920   1.000
    N364    N    0.05739   0.17694   0.93181   1.000
    N365    N    0.55739   0.17694   0.93181   1.000
    N366    N    0.41726   0.18159   0.63928   1.000
    N367    N    0.91726   0.18159   0.63928   1.000
    N368    N    0.44261   0.67696   0.56810   1.000
    N369    N    0.94261   0.67696   0.56817   1.000
    N370    N    0.08274   0.68160   0.86069   1.000
    N371    N    0.58274   0.68160   0.86069   1.000
    N372    N    0.05739   0.82308   0.56816   1.000
    N373    N    0.55739   0.82308   0.56816   1.000
    N374    N    0.41726   0.81844   0.86069   1.000
    N375    N    0.91726   0.81844   0.86069   1.000
    N376    N    0.05739   0.67696   0.06817   1.000
    N377    N    0.55739   0.67696   0.06817   1.000
    N378    N    0.41726   0.68160   0.36000   1.000
    N379    N    0.91726   0.68160   0.36070   1.000
    N380    N    0.44261   0.82308   0.06817   1.000
    N381    N    0.94261   0.82308   0.06817   1.000
    N382    N    0.08274   0.81844   0.36070   1.000
    N383    N    0.58274   0.81844   0.36070   1.000
    N384    N    0.05739   0.32307   0.43182   1.000
    N385    N    0.55739   0.32307   0.43181   1.000
    N386    N    0.41726   0.31843   0.13928   1.000
    N387    N    0.91726   0.31842   0.13929   1.000
    N388    N    0.44261   0.17694   0.43182   1.000
    N389    N    0.94261   0.17694   0.43182   1.000
    N390    N    0.08274   0.18159   0.13928   1.000
    N391    N    0.58274   0.18159   0.13928   1.000
    Cl392   Cl   0.10019   0.35622   0.05351   1.000
    Cl393   Cl   0.60020   0.35622   0.05351   1.000
    Cl394   Cl   0.39981   0.14379   0.05351   1.000
    Cl395   Cl   0.89981   0.14379   0.05351   1.000
    Cl396   Cl   0.10019   0.64381   0.44648   1.000
    Cl397   Cl   0.60020   0.64381   0.44648   1.000
    Cl398   Cl   0.39981   0.85623   0.44648   1.000
    Cl399   Cl   0.89981   0.85623   0.44640   1.000
    Cl400   Cl   0.39981   0.64381   0.94647   1.000
    Cl401   Cl   0.89981   0.64381   0.94647   1.000
    Cl402   Cl   0.10019   0.85623   0.94647   1.000
    Cl403   Cl   0.60019   0.85623   0.94647   1.000
    Cl404   Cl   0.39981   0.35622   0.55350   1.000
    Cl405   Cl   0.89981   0.35622   0.55350   1.000
    Cl406   Cl   0.10019   0.14379   0.55350   1.000
    Cl407   Cl   0.60019   0.14379   0.55350   1.000
loop_
    _geom_bond_atom_site_label_1
    _geom_bond_atom_site_label_2
    _geom_bond_distance
    _geom_bond_site_symmetry_2
    _ccdc_geom_bond_type
    H88    C264      1.09160      .   S
    H89    C265      1.09157      .   S
    H108   C288      1.09164      .   S
    H109   C289      1.09158      .   S
    Cd1    Cl394     2.63798      .   S
    Cd1    Cl393     2.63798      .   S
    Cd1    N391      2.43165      .   S
    Cd1    N386      2.43167      .   S
    Cd1    N360      2.46039  1_554   S
    Cd1    N365      2.46034  1_554   S
    Cd0    Cl395     2.63794  1_455   S
    Cd0    Cl392     2.63798      .   S
    Cd0    N390      2.43164      .   S
    Cd0    N387      2.43168  1_455   S
    Cd0    N361      2.46037  1_454   S
    Cd0    N364      2.46034  1_554   S
    H142   C330      1.09020      .   S
    H163   C355      1.09020      .   S
    H162   C354      1.08988      .   S
    H143   C331      1.09006      .   S
    N376   C264      1.34705      .   S
    N376   C272      1.34884      .   S
    N376   Cd4       2.46034  1_454   S
    N377   C265      1.34705      .   S
    N377   C273      1.34875      .   S
    N377   Cd5       2.46039  1_554   S
    N380   C288      1.34706      .   S
    N380   C296      1.34879      .   S
    N380   Cd5       2.46035  1_554   S
    N381   C289      1.34705      .   S
    N381   C297      1.34885      .   S
    N381   Cd4       2.46029  1_554   S
    C289   C291      1.39351      .   S
    C264   C266      1.39350      .   S
    C265   C267      1.39282      .   S
    C288   C290      1.39346      .   S
    C354   N390      1.34760      .   S
    C354   C352      1.39037      .   S
    C331   N387      1.34756      .   S
    C331   C329      1.39032      .   S
    C330   N386      1.34754      .   S
    C330   C328      1.39027      .   S
    C355   N391      1.34754      .   S
    C355   C353      1.39026      .   S
    H115   C297      1.09126      .   S
    H114   C296      1.09125      .   S
    H95    C273      1.09126      .   S
    H94    C272      1.09126      .   S
    H90    C266      1.09181      .   S
    H91    C267      1.09174      .   S
    H111   C291      1.00825  1_545   S
    H110   C290      1.00829  1_545   S
    C296   C294      1.38926      .   S
    C272   C270      1.39003      .   S
    C273   C271      1.39008      .   S
    C297   C295      1.39005      .   S
    H140   C328      1.09225      .   S
    H141   C329      1.09228      .   S
    H160   C352      1.09225      .   S
    H161   C353      1.09225      .   S
    C267   C269      1.40097      .   S
    C291   C293      1.40027      .   S
    C290   C292      1.40030      .   S
    C266   C268      1.40028      .   S
    N390   C356      1.34708      .   S
    N391   C357      1.34702      .   S
    N386   C332      1.34703      .   S
    N387   C333      1.34702      .   S
    C328   C326      1.40167      .   S
    C352   C350      1.40175      .   S
    C353   C351      1.40168      .   S
    C329   C327      1.40160      .   S
    H98    C276      1.10089      .   S
    H119   C301      1.10090      .   S
    H118   C300      1.10091      .   S
    H99    C277      1.10092      .   S
    H156   C346      1.10179      .   S
    H137   C323      1.10174      .   S
    H136   C322      1.10169      .   S
    H157   C347      1.10168      .   S
    C294   C292      1.40651      .   S
    C294   H112      1.09079      .   S
    C271   C269      1.40651      .   S
    C271   H93       1.08997      .   S
    C295   C293      1.40649      .   S
    C295   H113      1.09000      .   S
    C270   C268      1.40650      .   S
    C270   H92       1.09001      .   S
    C293   C299      1.50040      .   S
    C268   C274      1.50038      .   S
    C292   C298      1.50025      .   S
    C269   C275      1.50034      .   S
    H106   C286      1.09054      .   S
    H107   C287      1.08991      .   S
    H126   C310      1.09049      .   S
    H127   C311      1.09054      .   S
    C357   H165      1.09103      .   S
    C357   C359      1.39185      .   S
    C356   H164      1.09102      .   S
    C356   C358      1.39183      .   S
    C333   H145      1.09102      .   S
    C333   C335      1.39186      .   S
    C332   H144      1.09103      .   S
    C332   C334      1.39185      .   S
    C327   C335      1.40553      .   S
    C327   C325      1.49525      .   S
    C350   C358      1.40550      .   S
    C350   C348      1.49525      .   S
    C351   C359      1.40554      .   S
    C351   C349      1.49528      .   S
    C326   C334      1.40553      .   S
    C326   C324      1.49530      .   S
    C300   C298      1.56105      .   S
    C300   C348      1.57600  1_565   S
    C300   C302      1.49527      .   S
    C301   C299      1.56104      .   S
    C301   C349      1.57600  1_565   S
    C301   C303      1.49525      .   S
    C276   C274      1.56104      .   S
    C276   C324      1.57644      .   S
    C276   C278      1.49524      .   S
    C277   C275      1.56102      .   S
    C277   C325      1.57638      .   S
    C277   C279      1.49520      .   S
    C287   C279      1.40573      .   S
    C287   C285      1.39218      .   S
    C286   C278      1.40548      .   S
    C286   C284      1.39185      .   S
    C310   C302      1.40553      .   S
    C310   C308      1.39188      .   S
    C311   C303      1.40548      .   S
    C311   C309      1.39186      .   S
    C347   C299      1.55340  1_545   S
    C347   C349      1.56106      .   S
    C347   C341      1.50034      .   S
    C346   C298      1.55339  1_545   S
    C346   C348      1.56103      .   S
    C346   C340      1.50038      .   S
    C323   C275      1.55384      .   S
    C323   C325      1.56103      .   S
    C323   C317      1.50029      .   S
    C322   C274      1.55384      .   S
    C322   C324      1.56104      .   S
    C322   C316      1.50036      .   S
    C275   H97       1.10182      .   S
    C298   H116      1.10176      .   S
    C274   H96       1.10172      .   S
    C299   H117      1.10056      .   S
    C334   H146      1.09054      .   S
    C358   H166      1.09059      .   S
    C359   H167      1.09053      .   S
    C335   H147      1.09052      .   S
    H132   C318      1.09028      .   S
    H152   C342      1.09022      .   S
    H153   C343      1.09008      .   S
    H133   C319      1.08989      .   S
    C349   H159      1.10093      .   S
    C325   H139      1.10091      .   S
    C348   H158      1.10092      .   S
    C324   H138      1.10094      .   S
    H125   C309      1.09101      .   S
    H105   C285      1.09099      .   S
    H104   C284      1.09102      .   S
    H124   C308      1.09102      .   S
    C279   C281      1.40169      .   S
    C302   C304      1.40168      .   S
    C303   C305      1.40173      .   S
    C278   C280      1.40174      .   S
    C285   N379      1.34704      .   S
    C284   N378      1.33816      .   S
    C309   N383      1.34703      .   S
    C308   N382      1.34698      .   S
    C316   C318      1.40649      .   S
    C316   C314      1.40033      .   S
    C341   C343      1.40649      .   S
    C341   C339      1.40033      .   S
    C317   C319      1.40650      .   S
    C317   C315      1.40016      .   S
    C340   C342      1.40650      .   S
    C340   C338      1.40030      .   S
    C319   C321      1.39015      .   S
    C343   C345      1.39030      .   S
    C342   C344      1.39011      .   S
    C318   C320      1.39009      .   S
    C304   H120      1.09212      .   S
    C304   C306      1.39028      .   S
    C305   H121      1.09229      .   S
    C305   C307      1.39024      .   S
    C281   H101      1.09213      .   S
    C281   C283      1.39033      .   S
    C280   H100      1.09229      .   S
    C280   C282      1.39023      .   S
    N378   C282      1.35086      .   S
    N378   Cd3       2.43834      .   S
    N382   C306      1.34753      .   S
    N382   Cd2       2.43174      .   S
    N383   C307      1.34752      .   S
    N383   Cd3       2.43172      .   S
    N379   C283      1.34757      .   S
    N379   Cd2       2.43172  1_655   S
    C315   H131      1.09182      .   S
    C315   C313      1.39360      .   S
    C314   H130      1.09180      .   S
    C314   C312      1.39344      .   S
    C338   H150      1.09182  1_545   S
    C338   C336      1.39346      .   S
    C339   H151      1.09182  1_545   S
    C339   C337      1.39343      .   S
    C344   H154      1.09126      .   S
    C344   N388      1.34880      .   S
    C345   H155      1.09126      .   S
    C345   N389      1.34876      .   S
    C321   H135      1.09127      .   S
    C321   N385      1.34874      .   S
    C320   H134      1.09126      .   S
    C320   N384      1.34876      .   S
    C306   H122      1.09016      .   S
    C307   H123      1.09020      .   S
    C282   H102      1.09020      .   S
    C283   H103      1.09009      .   S
    C312   N384      1.34703      .   S
    C312   H128      1.09167      .   S
    C337   N389      1.34705      .   S
    C337   H149      1.09167      .   S
    C313   N385      1.34706      .   S
    C313   H129      1.09114      .   S
    C336   N388      1.34704      .   S
    C336   H148      1.09162      .   S
    N385   Cd7       2.46021      .   S
    N388   Cd7       2.46013      .   S
    N389   Cd6       2.46011      .   S
    N384   Cd6       2.46017  1_455   S
    Cl399  Cd2       2.63799  1_655   S
    Cl396  Cd2       2.63798      .   S
    Cl397  Cd3       2.63799      .   S
    Cl398  Cd3       2.63798      .   S
    Cd3    N368      2.45942      .   S
    Cd3    N373      2.46013      .   S
    Cd2    N372      2.46013      .   S
    Cd2    N369      2.46018  1_455   S
    H69    C241      1.09162      .   S
    H68    C240      1.09162      .   S
    H49    C217      1.09168      .   S
    H48    C216      1.09167      .   S
    Cd7    Cl404     2.63799      .   S
    Cd7    Cl407     2.63798      .   S
    Cd7    N363      2.43100      .   S
    Cd7    N366      2.43173      .   S
    Cd6    Cl405     2.63793      .   S
    Cd6    Cl406     2.63797  1_655   S
    Cd6    N362      2.43176  1_655   S
    Cd6    N367      2.43168      .   S
    H43    C211      1.09014      .   S
    H22    C186      1.09010      .   S
    H23    C187      1.09008      .   S
    H42    C210      1.09014      .   S
    N368   C216      1.34707      .   S
    N368   C224      1.34947      .   S
    N372   C240      1.34704      .   S
    N372   C248      1.34879      .   S
    N373   C241      1.34704      .   S
    N373   C249      1.34880      .   S
    N369   C217      1.34705      .   S
    N369   C225      1.34873      .   S
    C217   C219      1.39341      .   S
    C241   C243      1.39347      .   S
    C240   C242      1.39347      .   S
    C216   C218      1.39342      .   S
    C210   N366      1.34755      .   S
    C210   C208      1.39028      .   S
    C187   N363      1.34721      .   S
    C187   C185      1.39034      .   S
    C186   N362      1.34758      .   S
    C186   C184      1.39030      .   S
    C211   N367      1.34755      .   S
    C211   C209      1.39028      .   S
    H71    C243      1.00909  1_545   S
    H50    C218      1.09256      .   S
    H70    C242      1.00907  1_545   S
    H54    C224      1.09133      .   S
    H75    C249      1.09132      .   S
    H74    C248      1.09134      .   S
    H55    C225      1.09125      .   S
    H51    C219      1.09183      .   S
    C249   C247      1.39012      .   S
    C248   C246      1.39012      .   S
    C224   C222      1.39009      .   S
    C225   C223      1.39007      .   S
    H21    C185      1.09233      .   S
    H40    C208      1.09229      .   S
    H41    C209      1.09229      .   S
    H20    C184      1.09231      .   S
    C243   C245      1.40028      .   S
    C242   C244      1.40029      .   S
    C218   C220      1.40033      .   S
    C219   C221      1.39940      .   S
    N363   C189      1.34791      .   S
    N362   C188      1.34692      .   S
    N366   C212      1.34697      .   S
    N367   C213      1.34697      .   S
    C209   C207      1.40166      .   S
    C185   C183      1.40167      .   S
    C208   C206      1.40166      .   S
    C184   C182      1.40171      .   S
    H59    C229      1.10120      .   S
    H78    C252      1.10091      .   S
    H58    C228      1.10090      .   S
    H79    C253      1.10091      .   S
    H37    C203      1.10163      .   S
    H16    C178      1.10166      .   S
    H36    C202      1.10163      .   S
    H17    C179      1.10168      .   S
    C222   C220      1.40649      .   S
    C222   H52       1.08997      .   S
    C223   C221      1.40648      .   S
    C223   H53       1.09000      .   S
    C246   C244      1.40650      .   S
    C246   H72       1.08992      .   S
    C247   C245      1.40650      .   S
    C247   H73       1.08991      .   S
    C221   C227      1.50122      .   S
    C245   C251      1.50038      .   S
    C244   C250      1.50037      .   S
    C220   C226      1.50034      .   S
    H67    C239      1.09054      .   S
    H66    C238      1.09052      .   S
    H87    C263      1.09059      .   S
    H86    C262      1.09059      .   S
    C188   H24       1.09103      .   S
    C188   C190      1.39159      .   S
    C189   H25       1.09103      .   S
    C189   C191      1.39185      .   S
    C212   H44       1.09102      .   S
    C212   C214      1.39188      .   S
    C213   H45       1.09102      .   S
    C213   C215      1.39188      .   S
    C207   C215      1.40553      .   S
    C207   C205      1.49523      .   S
    C206   C214      1.40553      .   S
    C206   C204      1.49523      .   S
    C182   C190      1.40533      .   S
    C182   C180      1.49519      .   S
    C183   C191      1.40549      .   S
    C183   C181      1.49522      .   S
    C228   C226      1.56103      .   S
    C228   C180      1.57638      .   S
    C228   C230      1.49470      .   S
    C253   C251      1.56105      .   S
    C253   C205      1.57596  1_565   S
    C253   C255      1.49524      .   S
    C252   C250      1.56103      .   S
    C252   C204      1.57595  1_565   S
    C252   C254      1.49524      .   S
    C229   C227      1.56102      .   S
    C229   C181      1.57638      .   S
    C229   C231      1.49525      .   S
    C238   C230      1.40515      .   S
    C238   C236      1.39185      .   S
    C239   C231      1.40553      .   S
    C239   C237      1.39185      .   S
    C263   C255      1.40548      .   S
    C263   C261      1.39182      .   S
    C262   C254      1.40549      .   S
    C262   C260      1.39182      .   S
    C202   C250      1.55340  1_545   S
    C202   C204      1.56105      .   S
    C202   C196      1.50035      .   S
    C179   C227      1.55384      .   S
    C179   C181      1.56106      .   S
    C179   C173      1.49962      .   S
    C178   C226      1.55384      .   S
    C178   C180      1.56104      .   S
    C178   C172      1.50041      .   S
    C203   C251      1.55338  1_545   S
    C203   C205      1.56103      .   S
    C203   C197      1.50036      .   S
    C226   H56       1.10174      .   S
    C251   H77       1.10178      .   S
    C227   H57       1.10173      .   S
    C250   H76       1.10177      .   S
    C190   H26       1.09094      .   S
    C191   H27       1.09053      .   S
    C215   H47       1.09048      .   S
    C214   H46       1.09048      .   S
    H12    C174      1.08998      .   S
    H33    C199      1.08993      .   S
    H32    C198      1.08993      .   S
    H13    C175      1.08996      .   S
    C204   H38       1.10014      .   S
    C205   H39       1.10014      .   S
    C181   H19       1.10093      .   S
    C180   H18       1.10093      .   S
    H84    C260      1.09102      .   S
    H65    C237      1.09101      .   S
    H64    C236      1.09102      .   S
    H85    C261      1.09104      .   S
    C230   C232      1.40260      .   S
    C254   C256      1.40163      .   S
    C255   C257      1.40163      .   S
    C231   C233      1.40161      .   S
    C261   N375      1.34696      .   S
    C260   N374      1.34696      .   S
    C236   N370      1.34701      .   S
    C237   N371      1.34703      .   S
    C173   C175      1.40651      .   S
    C173   C171      1.40109      .   S
    C172   C174      1.40650      .   S
    C172   C170      1.40025      .   S
    C196   C198      1.40650      .   S
    C196   C194      1.40030      .   S
    C197   C199      1.40650      .   S
    C197   C195      1.40031      .   S
    C198   C200      1.39012      .   S
    C199   C201      1.39011      .   S
    C175   C177      1.39007      .   S
    C174   C176      1.39004      .   S
    C256   H80       1.09229      .   S
    C256   C258      1.39030      .   S
    C257   H81       1.09231      .   S
    C257   C259      1.39029      .   S
    C232   H60       1.09228      .   S
    C232   C234      1.39033      .   S
    C233   H61       1.09228      .   S
    C233   C235      1.39032      .   S
    N371   C235      1.34756      .   S
    N371   Cd5       2.43171      .   S
    N370   C234      1.34756      .   S
    N370   Cd4       2.43172  1_455   S
    N374   C258      1.34755      .   S
    N374   Cd5       2.43174      .   S
    N375   C259      1.34755      .   S
    N375   Cd4       2.43169      .   S
    C171   H11       1.09183      .   S
    C171   C169      1.39353      .   S
    C170   H10       1.09182      .   S
    C170   C168      1.39350      .   S
    C194   H30       1.09181  1_545   S
    C194   C192      1.39346      .   S
    C195   H31       1.09183  1_545   S
    C195   C193      1.39345      .   S
    C176   H14       1.09126      .   S
    C176   N360      1.34878      .   S
    C200   H34       1.09127      .   S
    C200   N364      1.34879      .   S
    C177   H15       1.09126      .   S
    C177   N361      1.34876      .   S
    C201   H35       1.09127      .   S
    C201   N365      1.34881      .   S
    C258   H82       1.09014      .   S
    C259   H83       1.09013      .   S
    C235   H63       1.09008      .   S
    C234   H62       1.09005      .   S
    C169   N361      1.34705      .   S
    C169   H9        1.09157      .   S
    C168   N360      1.34704      .   S
    C168   H8        1.09159      .   S
    C192   N364      1.34705      .   S
    C192   H28       1.09163      .   S
    C193   N365      1.34705      .   S
    C193   H29       1.09163      .   S
    Cl400  Cd5       2.63798      .   S
    Cl401  Cd4       2.63793      .   S
    Cl402  Cd4       2.63798  1_455   S
    Cl403  Cd5       2.63798      .   S
