# CIF file generated by openbabel 2.4.90, see http://openbabel.sf.net
data_I
_chemical_name_common ''
_cell_length_a 18.394
_cell_length_b 18.394
_cell_length_c 18.394
_cell_angle_alpha 60.411
_cell_angle_beta 60.407
_cell_angle_gamma 60.411
_space_group_name_H-M_alt 'P 1'
_space_group_name_Hall 'P 1'
loop_
    _symmetry_equiv_pos_as_xyz
    x,y,z
loop_
    _atom_site_label
    _atom_site_type_symbol
    _atom_site_fract_x
    _atom_site_fract_y
    _atom_site_fract_z
    _atom_site_occupancy
    N0      N    1.00000   0.50001   0.50000   1.000
    N1      N    0.99999   0.50001   0.00000   1.000
    N2      N    0.99999   0.00001   0.49995   1.000
    N3      N    0.49999   0.00001   1.00000   1.000
    N4      N    0.49999   0.50001   0.99995   1.000
    N5      N    0.49999   0.00001   0.50000   1.000
    Zr6     Zr   0.74998   0.74999   0.74998   1.000
    Zr7     Zr   0.25001   0.25003   0.25002   1.000
    O8      O    0.33245   0.16747   0.16746   1.000
    O9      O    0.33258   0.33259   0.16755   1.000
    O10     O    0.33258   0.16762   0.33258   1.000
    O11     O    0.16745   0.16746   0.33245   1.000
    O12     O    0.16745   0.33247   0.16745   1.000
    O13     O    0.16761   0.33259   0.33258   1.000
    O14     O    0.66754   0.83255   0.83254   1.000
    O15     O    0.66741   0.66743   0.83238   1.000
    O16     O    0.66741   0.83240   0.66741   1.000
    O17     O    0.83254   0.83255   0.66753   1.000
    O18     O    0.83254   0.66755   0.83255   1.000
    O19     O    0.83238   0.66743   0.66742   1.000
loop_
    _geom_bond_atom_site_label_1
    _geom_bond_atom_site_label_2
    _geom_bond_distance
    _geom_bond_site_symmetry_2
    _ccdc_geom_bond_type
    Zr7    O8        2.15419      .   S
    N3     O8        4.36956  1_556   S
    Zr7    O9        2.15437      .   S
    N4     O9        4.36848  1_556   S
    Zr7    O10       2.15450      .   S
    N5     O10       4.36870      .   S
    Zr7    O11       2.15427      .   S
    N2     O11       4.36944  1_655   S
    Zr7    O12       2.15443      .   S
    N1     O12       4.36970  1_655   S
    Zr7    O13       2.15424      .   S
    N0     O13       4.36857  1_655   S
    N3     O14       4.36951  1_545   S
    Zr6    O14       2.15417      .   S
    N4     O15       4.36847      .   S
    Zr6    O15       2.15436      .   S
    Zr6    O16       2.15451      .   S
    N5     O16       4.36870  1_545   S
    Zr6    O17       2.15427      .   S
    N2     O17       4.36945  1_545   S
    Zr6    O18       2.15443      .   S
    N1     O18       4.36971  1_554   S
    Zr6    O19       2.15426      .   S
    N0     O19       4.36862      .   S
