# CIF file generated by openbabel 2.4.90, see http://openbabel.sf.net
data_I
_chemical_name_common ''
_cell_length_a 18.394
_cell_length_b 18.394
_cell_length_c 18.394
_cell_angle_alpha 60.411
_cell_angle_beta 60.407
_cell_angle_gamma 60.411
_space_group_name_H-M_alt 'P 1'
_space_group_name_Hall 'P 1'
loop_
    _symmetry_equiv_pos_as_xyz
    x,y,z
loop_
    _atom_site_label
    _atom_site_type_symbol
    _atom_site_fract_x
    _atom_site_fract_y
    _atom_site_fract_z
    _atom_site_occupancy
    Zr0     Zr   0.20602   0.20609   0.20607   1.000
    Zr1     Zr   0.79397   0.79393   0.79393   1.000
    Zr2     Zr   0.20697   0.38020   0.20693   1.000
    Zr3     Zr   0.20697   0.20694   0.38020   1.000
    Zr4     Zr   0.38020   0.20698   0.20697   1.000
    Zr5     Zr   0.61979   0.79304   0.79303   1.000
    Zr6     Zr   0.79302   0.79308   0.61980   1.000
    Zr7     Zr   0.79302   0.61982   0.79307   1.000
    Zr8     Zr   0.24991   0.24992   0.24992   1.000
    Zr9     Zr   0.75008   0.75010   0.75008   1.000
    O10     O    0.22844   0.31506   0.22843   1.000
    O11     O    0.22844   0.22843   0.31506   1.000
    O12     O    0.77155   0.77159   0.68494   1.000
    O13     O    0.77155   0.68496   0.77158   1.000
    O14     O    0.22797   0.22801   0.22800   1.000
    O15     O    0.31505   0.22845   0.22845   1.000
    O16     O    0.77202   0.77201   0.77201   1.000
    O17     O    0.68494   0.77157   0.77156   1.000
    N18     N    1.00000   0.50001   0.50000   1.000
    O19     O    0.08520   0.37810   0.45219   1.000
    O20     O    0.91479   0.62192   0.54781   1.000
    O21     O    0.91479   0.54782   0.62191   1.000
    O22     O    0.08521   0.45219   0.37809   1.000
    N23     N    0.99999   0.50001   0.00000   1.000
    O24     O    0.08467   0.37775   0.08470   1.000
    O25     O    0.08511   0.45207   0.08508   1.000
    O26     O    0.91532   0.62227   0.91530   1.000
    O27     O    0.91488   0.54795   0.91492   1.000
    N28     N    0.99999   0.00001   0.49995   1.000
    O29     O    0.08467   0.08471   0.37771   1.000
    O30     O    0.08511   0.08509   0.45204   1.000
    O31     O    0.91532   0.91530   0.62224   1.000
    O32     O    0.91488   0.91492   0.54791   1.000
    N33     N    0.49999   0.00001   1.00000   1.000
    O34     O    0.37772   0.08471   0.08469   1.000
    O35     O    0.45206   0.08512   0.08510   1.000
    O36     O    0.62227   0.91531   0.91530   1.000
    O37     O    0.54793   0.91490   0.91490   1.000
    N38     N    0.49999   0.50001   0.99995   1.000
    O39     O    0.54780   0.62191   0.91477   1.000
    O40     O    0.37810   0.45220   0.08496   1.000
    O41     O    0.45219   0.37811   0.08519   1.000
    O42     O    0.62189   0.54782   0.91479   1.000
    N43     N    0.49999   0.00001   0.50000   1.000
    O44     O    0.62189   0.91483   0.54780   1.000
    O45     O    0.45219   0.08523   0.37810   1.000
    O46     O    0.54780   0.91479   0.62189   1.000
    O47     O    0.37810   0.08519   0.45220   1.000
loop_
    _geom_bond_atom_site_label_1
    _geom_bond_atom_site_label_2
    _geom_bond_distance
    _geom_bond_site_symmetry_2
    _ccdc_geom_bond_type
    Zr2    O10       0.98332      .   S
    Zr8    O10       0.98332      .   S
    Zr8    O11       0.98333      .   S
    Zr3    O11       0.98333      .   S
    Zr6    O12       0.98333      .   S
    Zr9    O12       0.98333      .   S
    Zr9    O13       0.98332      .   S
    Zr7    O13       0.98332      .   S
    Zr8    O14       0.98498      .   S
    Zr0    O14       0.98498      .   S
    Zr8    O15       0.98335      .   S
    Zr4    O15       0.98335      .   S
    Zr9    O16       0.98498      .   S
    Zr1    O16       0.98498      .   S
    Zr9    O17       0.98335      .   S
    Zr5    O17       0.98335      .   S
    N18    O19       2.31808  1_655   S
    Zr3    O19       3.30238      .   S
    N18    O20       2.31811      .   S
    Zr6    O20       3.30240      .   S
    N18    O21       2.31811      .   S
    Zr7    O21       3.30244      .   S
    N18    O22       2.31807  1_655   S
    Zr2    O22       3.30240      .   S
    N23    O24       2.32120  1_655   S
    Zr0    O24       3.30707      .   S
    N23    O25       2.31769  1_655   S
    Zr2    O25       3.30218      .   S
    N23    O26       2.32121  1_554   S
    Zr1    O26       3.30707      .   S
    N23    O27       2.31770  1_554   S
    Zr7    O27       3.30219      .   S
    N28    O29       2.32097  1_655   S
    Zr0    O29       3.30678      .   S
    N28    O30       2.31775  1_655   S
    Zr3    O30       3.30220      .   S
    N28    O31       2.32125  1_545   S
    Zr1    O31       3.30704      .   S
    N28    O32       2.31749  1_545   S
    Zr6    O32       3.30196      .   S
    N33    O34       2.32134  1_556   S
    Zr0    O34       3.30735      .   S
    N33    O35       2.31783  1_556   S
    Zr4    O35       3.30246      .   S
    N33    O36       2.32133  1_545   S
    Zr1    O36       3.30731      .   S
    N33    O37       2.31777  1_545   S
    Zr5    O37       3.30243      .   S
    N38    O39       2.31786      .   S
    Zr5    O39       3.30205      .   S
    N38    O40       2.31781  1_556   S
    Zr2    O40       3.30206      .   S
    N38    O41       2.31787  1_556   S
    Zr4    O41       3.30206      .   S
    N38    O42       2.31783      .   S
    Zr7    O42       3.30201      .   S
    N43    O44       2.31791  1_545   S
    Zr6    O44       3.30220      .   S
    N43    O45       2.31794      .   S
    Zr4    O45       3.30219      .   S
    N43    O46       2.31794  1_545   S
    Zr5    O46       3.30220      .   S
    N43    O47       2.31793      .   S
    Zr3    O47       3.30217      .   S
