# CIF file generated by openbabel 2.4.90, see http://openbabel.sf.net
data_I
_chemical_name_common ''
_cell_length_a 18.394
_cell_length_b 18.394
_cell_length_c 18.394
_cell_angle_alpha 60.411
_cell_angle_beta 60.407
_cell_angle_gamma 60.411
_space_group_name_H-M_alt 'P 1'
_space_group_name_Hall 'P 1'
loop_
    _symmetry_equiv_pos_as_xyz
    x,y,z
loop_
    _atom_site_label
    _atom_site_type_symbol
    _atom_site_fract_x
    _atom_site_fract_y
    _atom_site_fract_z
    _atom_site_occupancy
    N0      N    1.00000   0.50001   0.50000   1.000
    N1      N    0.99999   0.50001   0.00000   1.000
    N2      N    0.99999   0.00001   0.49995   1.000
    N3      N    0.49999   0.00001   1.00000   1.000
    N4      N    0.49999   0.50001   0.99995   1.000
    N5      N    0.49999   0.00001   0.50000   1.000
    Zr6     Zr   0.74998   0.74999   0.74998   1.000
    O7      O    0.83243   0.64897   0.83245   1.000
    O8      O    0.68593   0.64891   0.83239   1.000
    O9      O    0.83238   0.64891   0.68595   1.000
    O10     O    0.68593   0.83241   0.64889   1.000
    O11     O    0.83238   0.68596   0.64890   1.000
    O12     O    0.83243   0.83246   0.64894   1.000
    O13     O    0.83265   0.68613   0.83264   1.000
    O14     O    0.68612   0.83265   0.83264   1.000
    O15     O    0.83265   0.83265   0.68611   1.000
    O16     O    0.64895   0.83245   0.83244   1.000
    O17     O    0.64889   0.68595   0.83237   1.000
    O18     O    0.64889   0.83239   0.68594   1.000
    Zr19    Zr   0.25001   0.25003   0.25002   1.000
    O20     O    0.31387   0.16737   0.16736   1.000
    O21     O    0.16734   0.16737   0.31387   1.000
    O22     O    0.16734   0.31389   0.16736   1.000
    O23     O    0.35104   0.16757   0.16756   1.000
    O24     O    0.35110   0.31407   0.16760   1.000
    O25     O    0.35110   0.16763   0.31406   1.000
    O26     O    0.31405   0.16761   0.35111   1.000
    O27     O    0.16756   0.16756   0.35103   1.000
    O28     O    0.16761   0.31406   0.35110   1.000
    O29     O    0.16761   0.35111   0.31405   1.000
    O30     O    0.16756   0.35105   0.16755   1.000
    O31     O    0.31405   0.35111   0.16749   1.000
loop_
    _geom_bond_atom_site_label_1
    _geom_bond_atom_site_label_2
    _geom_bond_distance
    _geom_bond_site_symmetry_2
    _ccdc_geom_bond_type
    Zr6    O7        2.18165      .   S
    N1     O7        4.38275  1_554   S
    Zr6    O8        2.18147      .   S
    N4     O8        4.38190      .   S
    Zr6    O9        2.18137      .   S
    N0     O9        4.38205      .   S
    Zr6    O10       2.18163      .   S
    N5     O10       4.38212  1_545   S
    Zr6    O11       2.18137      .   S
    N0     O11       4.38205      .   S
    Zr6    O12       2.18153      .   S
    N2     O12       4.38244  1_545   S
    Zr6    O13       2.18168      .   S
    N1     O13       4.38366  1_554   S
    Zr6    O14       2.18142      .   S
    N3     O14       4.38348  1_545   S
    Zr6    O15       2.18150      .   S
    N2     O15       4.38345  1_545   S
    Zr6    O16       2.18141      .   S
    N3     O16       4.38254  1_545   S
    Zr6    O17       2.18146      .   S
    N4     O17       4.38191      .   S
    Zr6    O18       2.18159      .   S
    N5     O18       4.38215  1_545   S
    Zr19   O20       2.18145      .   S
    N3     O20       4.38352  1_556   S
    Zr19   O21       2.18157      .   S
    N2     O21       4.38333  1_655   S
    Zr19   O22       2.18168      .   S
    N1     O22       4.38365  1_655   S
    Zr19   O23       2.18142      .   S
    N3     O23       4.38260  1_556   S
    Zr19   O24       2.18146      .   S
    N4     O24       4.38192  1_556   S
    Zr19   O25       2.18159      .   S
    N5     O25       4.38214      .   S
    Zr19   O26       2.18161      .   S
    N5     O26       4.38213      .   S
    Zr19   O27       2.18146      .   S
    N2     O27       4.38253  1_655   S
    Zr19   O28       2.18135      .   S
    N0     O28       4.38200  1_655   S
    Zr19   O29       2.18135      .   S
    N0     O29       4.38200  1_655   S
    Zr19   O30       2.18165      .   S
    N1     O30       4.38274  1_655   S
    Zr19   O31       2.18148      .   S
    N4     O31       4.38189  1_556   S
