# CIF file generated by openbabel 2.4.90, see http://openbabel.sf.net
data_I
_chemical_name_common ''
_cell_length_a 15.945
_cell_length_b 19.362
_cell_length_c 21.91
_cell_angle_alpha 64.228
_cell_angle_beta 88.743
_cell_angle_gamma 76.382
_space_group_name_H-M_alt 'P 1'
_space_group_name_Hall 'P 1'
loop_
    _symmetry_equiv_pos_as_xyz
    x,y,z
loop_
    _atom_site_label
    _atom_site_type_symbol
    _atom_site_fract_x
    _atom_site_fract_y
    _atom_site_fract_z
    _atom_site_occupancy
    Zn0     Zn   0.18174   0.22657   0.72550   1.000
    Zn1     Zn   0.18442   0.72545   0.22481   1.000
    Zn2     Zn   0.18173   0.72658   0.72550   1.000
    Zn3     Zn   0.68443   0.22544   0.22481   1.000
    Zn4     Zn   0.68174   0.22658   0.72550   1.000
    Zn5     Zn   0.68443   0.72545   0.22480   1.000
    Zn6     Zn   0.68175   0.72658   0.72550   1.000
    Zn7     Zn   0.31826   0.27340   0.27448   1.000
    Zn8     Zn   0.31559   0.27453   0.77517   1.000
    Zn9     Zn   0.31826   0.77340   0.27448   1.000
    Zn10    Zn   0.31558   0.77454   0.77510   1.000
    Zn11    Zn   0.81828   0.27340   0.27448   1.000
    Zn12    Zn   0.81560   0.27453   0.77517   1.000
    Zn13    Zn   0.81827   0.77340   0.27448   1.000
    Zn14    Zn   0.81561   0.77453   0.77517   1.000
    Zn15    Zn   0.18441   0.22544   0.22480   1.000
loop_
    _geom_bond_atom_site_label_1
    _geom_bond_atom_site_label_2
    _geom_bond_distance
    _geom_bond_site_symmetry_2
    _ccdc_geom_bond_type
    Zn15   Zn7       2.91815      .   S
    Zn0    Zn8       2.91806      .   S
    Zn1    Zn9       2.91806      .   S
    Zn2    Zn10      2.91736      .   S
    Zn3    Zn11      2.91809      .   S
    Zn4    Zn12      2.91815      .   S
    Zn5    Zn13      2.91814      .   S
    Zn6    Zn14      2.91810      .   S
