# CIF file generated by openbabel 2.4.90, see http://openbabel.sf.net
data_I
_chemical_name_common ''
_cell_length_a 15.945
_cell_length_b 19.362
_cell_length_c 21.91
_cell_angle_alpha 64.228
_cell_angle_beta 88.743
_cell_angle_gamma 76.382
_space_group_name_H-M_alt 'P 1'
_space_group_name_Hall 'P 1'
loop_
    _symmetry_equiv_pos_as_xyz
    x,y,z
loop_
    _atom_site_label
    _atom_site_type_symbol
    _atom_site_fract_x
    _atom_site_fract_y
    _atom_site_fract_z
    _atom_site_occupancy
    N0      N    0.99885   0.50061   0.75033   1.000
    N1      N    0.50116   0.99936   0.24962   1.000
    N2      N    0.25000   0.49999   0.99998   1.000
    N3      N    0.25000   0.49999   0.49999   1.000
    N4      N    0.25000   0.99998   0.99999   1.000
    N5      N    0.25000   0.99999   0.49998   1.000
    N6      N    0.75002   0.49999   0.99998   1.000
    N7      N    0.75001   0.49999   0.49995   1.000
    N8      N    0.75001   0.99999   0.99998   1.000
    N9      N    0.75002   0.99999   0.49998   1.000
    N10     N    0.99976   0.24999   0.49998   1.000
    N11     N    0.99989   0.24998   0.99998   1.000
    N12     N    0.99975   0.75000   0.49997   1.000
    N13     N    0.99989   0.74998   0.99998   1.000
    N14     N    0.50001   0.25000   0.49997   1.000
    N15     N    0.50002   0.24998   0.99998   1.000
    N16     N    0.50001   0.74999   0.49999   1.000
    N17     N    0.50001   0.74999   0.99998   1.000
    N18     N    0.00116   0.99936   0.24963   1.000
    N19     N    0.99885   0.00061   0.75033   1.000
    N20     N    0.50116   0.49936   0.24963   1.000
    N21     N    0.00116   0.49936   0.24962   1.000
    N22     N    0.49884   0.50061   0.75033   1.000
    N23     N    0.49885   0.00061   0.75033   1.000
    Zr24    Zr   0.74868   0.75056   0.75034   1.000
    O25     O    0.83787   0.75726   0.82779   1.000
    O26     O    0.66020   0.74353   0.67269   1.000
    Zr27    Zr   0.25134   0.24942   0.24964   1.000
    O28     O    0.33981   0.25645   0.32728   1.000
    O29     O    0.16209   0.24272   0.17218   1.000
    Zr30    Zr   0.24866   0.25055   0.75034   1.000
    O31     O    0.33789   0.25725   0.82779   1.000
    O32     O    0.16013   0.24352   0.67268   1.000
    Zr33    Zr   0.25134   0.74943   0.24965   1.000
    O34     O    0.33982   0.75646   0.32729   1.000
    O35     O    0.16209   0.74272   0.17219   1.000
    Zr36    Zr   0.24865   0.75056   0.75030   1.000
    O37     O    0.33788   0.75726   0.82776   1.000
    O38     O    0.16012   0.74353   0.67267   1.000
    Zr39    Zr   0.75136   0.24942   0.24965   1.000
    O40     O    0.83977   0.25645   0.32729   1.000
    O41     O    0.66213   0.24271   0.17219   1.000
    Zr42    Zr   0.74867   0.25055   0.75034   1.000
    O43     O    0.83786   0.25725   0.82779   1.000
    O44     O    0.66019   0.24352   0.67268   1.000
    Zr45    Zr   0.75135   0.74943   0.24964   1.000
    O46     O    0.66213   0.74272   0.17218   1.000
    O47     O    0.83976   0.75646   0.32728   1.000
    O48     O    0.82331   0.17753   0.74934   1.000
    O49     O    0.67418   0.32361   0.75135   1.000
    O50     O    0.75226   0.32393   0.67649   1.000
    O51     O    0.74573   0.17689   0.82397   1.000
    O52     O    0.17417   0.82362   0.75132   1.000
    O53     O    0.32583   0.67637   0.24863   1.000
    O54     O    0.67671   0.32244   0.25063   1.000
    O55     O    0.17670   0.82244   0.25064   1.000
    O56     O    0.82584   0.17636   0.24863   1.000
    O57     O    0.67419   0.82361   0.75135   1.000
    O58     O    0.75227   0.82394   0.67650   1.000
    O59     O    0.82331   0.67754   0.74934   1.000
    O60     O    0.74573   0.67689   0.82397   1.000
    O61     O    0.82584   0.67637   0.24862   1.000
    O62     O    0.17670   0.32244   0.25062   1.000
    O63     O    0.32329   0.67754   0.74932   1.000
    O64     O    0.32330   0.17753   0.74933   1.000
    O65     O    0.74776   0.67605   0.32346   1.000
    O66     O    0.67671   0.82244   0.25062   1.000
    O67     O    0.75430   0.82309   0.17600   1.000
    O68     O    0.25428   0.32308   0.17600   1.000
    O69     O    0.32583   0.17636   0.24862   1.000
    O70     O    0.24775   0.17604   0.32347   1.000
    O71     O    0.25226   0.32393   0.67650   1.000
    O72     O    0.17417   0.32361   0.75135   1.000
    O73     O    0.24572   0.17688   0.82397   1.000
    O74     O    0.24571   0.67689   0.82395   1.000
    O75     O    0.25225   0.82394   0.67648   1.000
    O76     O    0.24775   0.67604   0.32348   1.000
    O77     O    0.25428   0.82309   0.17600   1.000
    O78     O    0.74777   0.17604   0.32348   1.000
    O79     O    0.75430   0.32308   0.17600   1.000
loop_
    _geom_bond_atom_site_label_1
    _geom_bond_atom_site_label_2
    _geom_bond_distance
    _geom_bond_site_symmetry_2
    _ccdc_geom_bond_type
    Zr24   O25       2.30288      .   S
    N13    O25       4.55219      .   S
    Zr24   O26       2.30225      .   S
    N16    O26       4.55183      .   S
    Zr27   O28       2.30221      .   S
    N14    O28       4.55165      .   S
    Zr27   O29       2.30361      .   S
    N11    O29       4.55409  1_656   S
    Zr30   O31       2.30326      .   S
    N15    O31       4.55318      .   S
    Zr30   O32       2.30285      .   S
    N10    O32       4.55349  1_655   S
    Zr33   O34       2.30219      .   S
    N16    O34       4.55173      .   S
    Zr33   O35       2.30359      .   S
    N13    O35       4.55409  1_656   S
    Zr36   O37       2.30338      .   S
    N17    O37       4.55358      .   S
    Zr36   O38       2.30259      .   S
    N12    O38       4.55325  1_655   S
    Zr39   O40       2.30151      .   S
    N10    O40       4.54987      .   S
    Zr39   O41       2.30332      .   S
    N15    O41       4.55329  1_556   S
    Zr42   O43       2.30287      .   S
    N11    O43       4.55211      .   S
    Zr42   O44       2.30229      .   S
    N14    O44       4.55192      .   S
    Zr45   O46       2.30332      .   S
    N17    O46       4.55330  1_556   S
    Zr45   O47       2.30151      .   S
    N12    O47       4.54982      .   S
    Zr42   O48       1.62757      .   S
    N19    O48       3.87197      .   S
    Zr42   O49       1.62705      .   S
    N22    O49       3.87121      .   S
    Zr42   O50       1.63550      .   S
    N7     O50       3.88139      .   S
    Zr42   O51       1.63297      .   S
    N8     O51       3.87604  1_565   S
    N19    O52       3.87116  1_645   S
    Zr36   O52       1.62708      .   S
    N20    O53       3.87124      .   S
    Zr33   O53       1.62710      .   S
    N20    O54       3.87203      .   S
    Zr39   O54       1.62758      .   S
    N18    O55       3.87188      .   S
    Zr33   O55       1.62753      .   S
    N18    O56       3.87106  1_465   S
    Zr39   O56       1.62704      .   S
    Zr24   O57       1.62702      .   S
    N23    O57       3.87105  1_545   S
    Zr24   O58       1.63538      .   S
    N9     O58       3.88104      .   S
    Zr24   O59       1.62759      .   S
    N0     O59       3.87204      .   S
    Zr24   O60       1.63296      .   S
    N6     O60       3.87601      .   S
    N21    O61       3.87123  1_455   S
    Zr45   O61       1.62710      .   S
    N21    O62       3.87192      .   S
    Zr27   O62       1.62749      .   S
    N22    O63       3.87193      .   S
    Zr36   O63       1.62750      .   S
    N23    O64       3.87202      .   S
    Zr30   O64       1.62764      .   S
    Zr45   O65       1.63520      .   S
    N7     O65       3.88079      .   S
    Zr45   O66       1.62750      .   S
    N1     O66       3.87197      .   S
    Zr45   O67       1.63304      .   S
    N8     O67       3.87607  1_556   S
    Zr27   O68       1.63305      .   S
    N2     O68       3.87612  1_556   S
    Zr27   O69       1.62708      .   S
    N1     O69       3.87117  1_565   S
    Zr27   O70       1.63535      .   S
    N5     O70       3.88091  1_565   S
    Zr30   O71       1.63539      .   S
    N3     O71       3.88108      .   S
    Zr30   O72       1.62703      .   S
    N0     O72       3.87108  1_655   S
    Zr30   O73       1.63303      .   S
    N4     O73       3.87603  1_565   S
    Zr36   O74       1.63320      .   S
    N2     O74       3.87632      .   S
    Zr36   O75       1.63523      .   S
    N5     O75       3.88080      .   S
    N3     O76       3.88099      .   S
    Zr33   O76       1.63536      .   S
    Zr33   O77       1.63304      .   S
    N4     O77       3.87605  1_556   S
    N9     O78       3.88093  1_565   S
    Zr39   O78       1.63535      .   S
    N6     O79       3.87622  1_556   S
    Zr39   O79       1.63310      .   S
