# CIF file generated by openbabel 2.4.90, see http://openbabel.sf.net
data_I
_chemical_name_common ''
_cell_length_a 15.945
_cell_length_b 19.362
_cell_length_c 21.91
_cell_angle_alpha 64.228
_cell_angle_beta 88.743
_cell_angle_gamma 76.382
_space_group_name_H-M_alt 'P 1'
_space_group_name_Hall 'P 1'
loop_
    _symmetry_equiv_pos_as_xyz
    x,y,z
loop_
    _atom_site_label
    _atom_site_type_symbol
    _atom_site_fract_x
    _atom_site_fract_y
    _atom_site_fract_z
    _atom_site_occupancy
    Zr0     Zr   0.18441   0.22544   0.22480   1.000
    Zr1     Zr   0.18174   0.22657   0.72550   1.000
    Zr2     Zr   0.18442   0.72545   0.22481   1.000
    Zr3     Zr   0.18173   0.72658   0.72550   1.000
    Zr4     Zr   0.68443   0.22544   0.22481   1.000
    Zr5     Zr   0.68174   0.22658   0.72550   1.000
    Zr6     Zr   0.68443   0.72545   0.22480   1.000
    Zr7     Zr   0.68175   0.72658   0.72550   1.000
    Zr8     Zr   0.31826   0.27340   0.27448   1.000
    Zr9     Zr   0.31559   0.27453   0.77517   1.000
    Zr10    Zr   0.31826   0.77340   0.27448   1.000
    Zr11    Zr   0.31558   0.77454   0.77510   1.000
    Zr12    Zr   0.81828   0.27340   0.27448   1.000
    Zr13    Zr   0.81560   0.27453   0.77517   1.000
    Zr14    Zr   0.81827   0.77340   0.27448   1.000
    Zr15    Zr   0.81561   0.77453   0.77517   1.000
    O16     O    0.25134   0.24942   0.24964   1.000
    O17     O    0.24866   0.25055   0.75034   1.000
    O18     O    0.25134   0.74943   0.24965   1.000
    O19     O    0.24865   0.75056   0.75030   1.000
    O20     O    0.75136   0.24942   0.24965   1.000
    O21     O    0.74867   0.25055   0.75034   1.000
    O22     O    0.75135   0.74943   0.24964   1.000
    O23     O    0.74868   0.75056   0.75034   1.000
    N24     N    0.99885   0.50061   0.75033   1.000
    O25     O    0.92781   0.61547   0.75893   1.000
    O26     O    0.86809   0.59356   0.73776   1.000
    O27     O    0.12952   0.40767   0.76292   1.000
    O28     O    0.06985   0.38567   0.74181   1.000
    N29     N    0.50116   0.99936   0.24962   1.000
    O30     O    0.37049   0.09230   0.23705   1.000
    O31     O    0.43016   0.11430   0.25816   1.000
    O32     O    0.63192   0.90641   0.26218   1.000
    O33     O    0.57221   0.88451   0.24103   1.000
    N34     N    0.25000   0.49999   0.99998   1.000
    O35     O    0.28693   0.40774   0.11304   1.000
    O36     O    0.21306   0.59223   0.88693   1.000
    O37     O    0.27247   0.61422   0.90827   1.000
    O38     O    0.22752   0.38575   0.09168   1.000
    N39     N    0.25000   0.49999   0.49999   1.000
    O40     O    0.28565   0.40820   0.61336   1.000
    O41     O    0.21436   0.59177   0.38662   1.000
    O42     O    0.27396   0.61355   0.40800   1.000
    O43     O    0.22605   0.38642   0.59197   1.000
    N44     N    0.25000   0.99998   0.99999   1.000
    O45     O    0.28693   0.90775   0.11304   1.000
    O46     O    0.21307   0.09222   0.88693   1.000
    O47     O    0.27248   0.11422   0.90829   1.000
    O48     O    0.22752   0.88575   0.09168   1.000
    N49     N    0.25000   0.99999   0.49998   1.000
    O50     O    0.21436   0.09177   0.38661   1.000
    O51     O    0.27396   0.11355   0.40800   1.000
    O52     O    0.28564   0.90821   0.61334   1.000
    O53     O    0.22604   0.88643   0.59197   1.000
    N54     N    0.75002   0.49999   0.99998   1.000
    O55     O    0.71308   0.59223   0.88691   1.000
    O56     O    0.77249   0.61422   0.90829   1.000
    O57     O    0.78695   0.40774   0.11304   1.000
    O58     O    0.72754   0.38575   0.09168   1.000
    N59     N    0.75001   0.49999   0.49995   1.000
    O60     O    0.71437   0.59178   0.38658   1.000
    O61     O    0.77397   0.61355   0.40799   1.000
    O62     O    0.78565   0.40820   0.61334   1.000
    O63     O    0.72605   0.38642   0.59196   1.000
    N64     N    0.75001   0.99999   0.99998   1.000
    O65     O    0.71308   0.09223   0.88692   1.000
    O66     O    0.77249   0.11422   0.90829   1.000
    O67     O    0.78695   0.90775   0.11304   1.000
    O68     O    0.72754   0.88576   0.09168   1.000
    N69     N    0.75002   0.99999   0.49998   1.000
    O70     O    0.71438   0.09177   0.38662   1.000
    O71     O    0.77398   0.11355   0.40800   1.000
    O72     O    0.78566   0.90820   0.61336   1.000
    O73     O    0.72606   0.88643   0.59197   1.000
    N74     N    0.99976   0.24999   0.49998   1.000
    O75     O    0.07159   0.23649   0.59503   1.000
    O76     O    0.92818   0.26349   0.40493   1.000
    N77     N    0.99989   0.24998   0.99998   1.000
    O78     O    0.07284   0.23601   0.09472   1.000
    O79     O    0.92706   0.26396   0.90524   1.000
    N80     N    0.99975   0.75000   0.49997   1.000
    O81     O    0.07158   0.73650   0.59503   1.000
    O82     O    0.92817   0.76349   0.40493   1.000
    N83     N    0.99989   0.74998   0.99998   1.000
    O84     O    0.07284   0.73601   0.09473   1.000
    O85     O    0.92706   0.76396   0.90524   1.000
    N86     N    0.50001   0.25000   0.49997   1.000
    O87     O    0.57172   0.23650   0.59503   1.000
    O88     O    0.42829   0.26349   0.40493   1.000
    N89     N    0.50002   0.24998   0.99998   1.000
    O90     O    0.57291   0.23601   0.09473   1.000
    O91     O    0.42712   0.26395   0.90524   1.000
    N92     N    0.50001   0.74999   0.49999   1.000
    O93     O    0.57172   0.73650   0.59504   1.000
    O94     O    0.42829   0.76349   0.40493   1.000
    N95     N    0.50001   0.74999   0.99998   1.000
    O96     O    0.57291   0.73602   0.09473   1.000
    O97     O    0.42711   0.76396   0.90522   1.000
    N98     N    0.00116   0.99936   0.24963   1.000
    O99     O    0.87050   0.09230   0.23705   1.000
    O100    O    0.93017   0.11430   0.25816   1.000
    O101    O    0.13192   0.90641   0.26221   1.000
    O102    O    0.07221   0.88451   0.24104   1.000
    N103    N    0.99885   0.00061   0.75033   1.000
    O104    O    0.92780   0.11546   0.75893   1.000
    O105    O    0.86809   0.09356   0.73776   1.000
    O106    O    0.12951   0.90767   0.76289   1.000
    O107    O    0.06984   0.88568   0.74181   1.000
    N108    N    0.50116   0.49936   0.24963   1.000
    O109    O    0.37049   0.59231   0.23705   1.000
    O110    O    0.43016   0.61430   0.25816   1.000
    O111    O    0.63193   0.40641   0.26221   1.000
    O112    O    0.57222   0.38451   0.24104   1.000
    N113    N    0.00116   0.49936   0.24962   1.000
    O114    O    0.93016   0.61431   0.25815   1.000
    O115    O    0.87049   0.59231   0.23704   1.000
    O116    O    0.13192   0.40641   0.26220   1.000
    O117    O    0.07221   0.38451   0.24101   1.000
    N118    N    0.49884   0.50061   0.75033   1.000
    O119    O    0.36808   0.59357   0.73776   1.000
    O120    O    0.42779   0.61547   0.75891   1.000
    O121    O    0.62952   0.40767   0.76291   1.000
    O122    O    0.56985   0.38567   0.74181   1.000
    N123    N    0.49885   0.00061   0.75033   1.000
    O124    O    0.36809   0.09356   0.73774   1.000
    O125    O    0.42780   0.11546   0.75893   1.000
    O126    O    0.62953   0.90767   0.76292   1.000
    O127    O    0.56986   0.88567   0.74181   1.000
loop_
    _geom_bond_atom_site_label_1
    _geom_bond_atom_site_label_2
    _geom_bond_distance
    _geom_bond_site_symmetry_2
    _ccdc_geom_bond_type
    Zr0    O16       1.45908      .   S
    Zr8    O16       1.45908      .   S
    Zr1    O17       1.45903      .   S
    Zr9    O17       1.45903      .   S
    Zr2    O18       1.45903      .   S
    Zr10   O18       1.45903      .   S
    Zr3    O19       1.45868      .   S
    Zr11   O19       1.45868      .   S
    Zr4    O20       1.45904      .   S
    Zr12   O20       1.45904      .   S
    Zr5    O21       1.45908      .   S
    Zr13   O21       1.45908      .   S
    Zr6    O22       1.45907      .   S
    Zr14   O22       1.45907      .   S
    Zr7    O23       1.45905      .   S
    Zr15   O23       1.45905      .   S
    N24    O25       2.33085      .   S
    Zr15   O25       3.33818      .   S
    N24    O26       2.34291      .   S
    Zr7    O26       3.37098      .   S
    N24    O27       2.34171  1_655   S
    Zr9    O27       3.36918      .   S
    N24    O28       2.33127  1_655   S
    Zr1    O28       3.33780      .   S
    N29    O30       2.34175  1_565   S
    Zr0    O30       3.36921      .   S
    N29    O31       2.33133  1_565   S
    Zr8    O31       3.33798      .   S
    N29    O32       2.34298      .   S
    Zr14   O32       3.37081      .   S
    N29    O33       2.33075      .   S
    Zr6    O33       3.33808      .   S
    N34    O35       2.32257  1_556   S
    Zr8    O35       3.31541      .   S
    N34    O36       2.32245      .   S
    Zr3    O36       3.31530      .   S
    N34    O37       2.35268      .   S
    Zr11   O37       3.41497      .   S
    N34    O38       2.35252  1_556   S
    Zr0    O38       3.41443      .   S
    N39    O40       2.32360      .   S
    Zr9    O40       3.31799      .   S
    N39    O41       2.32353      .   S
    Zr2    O41       3.31791      .   S
    N39    O42       2.35600      .   S
    Zr10   O42       3.42082      .   S
    N39    O43       2.35605      .   S
    Zr1    O43       3.42086      .   S
    N44    O45       2.32250  1_556   S
    Zr10   O45       3.31535      .   S
    N44    O46       2.32247  1_565   S
    Zr1    O46       3.31533      .   S
    N44    O47       2.35248  1_565   S
    Zr9    O47       3.41443      .   S
    N44    O48       2.35247  1_556   S
    Zr2    O48       3.41443      .   S
    N49    O50       2.32349  1_565   S
    Zr0    O50       3.31796      .   S
    N49    O51       2.35591  1_565   S
    Zr8    O51       3.42073      .   S
    N49    O52       2.32333      .   S
    Zr11   O52       3.31718      .   S
    N49    O53       2.35604      .   S
    Zr3    O53       3.42090      .   S
    N54    O55       2.32264      .   S
    Zr7    O55       3.31501      .   S
    N54    O56       2.35247      .   S
    Zr15   O56       3.41442      .   S
    N54    O57       2.32262  1_556   S
    Zr12   O57       3.31546      .   S
    N54    O58       2.35258  1_556   S
    Zr4    O58       3.41454      .   S
    N59    O60       2.32368      .   S
    Zr6    O60       3.31742      .   S
    N59    O61       2.35583      .   S
    Zr14   O61       3.42064      .   S
    N59    O62       2.32384      .   S
    Zr13   O62       3.31823      .   S
    N59    O63       2.35620      .   S
    Zr5    O63       3.42104      .   S
    N64    O65       2.32268  1_565   S
    Zr5    O65       3.31505      .   S
    N64    O66       2.35247  1_565   S
    Zr13   O66       3.41441      .   S
    N64    O67       2.32254  1_556   S
    Zr14   O67       3.31539      .   S
    N64    O68       2.35248  1_556   S
    Zr6    O68       3.41439      .   S
    N69    O70       2.32350  1_565   S
    Zr4    O70       3.31788      .   S
    N69    O71       2.35595  1_565   S
    Zr12   O71       3.42079      .   S
    N69    O72       2.32358      .   S
    Zr15   O72       3.31798      .   S
    N69    O73       2.35600      .   S
    Zr7    O73       3.42084      .   S
    N74    O75       2.28210  1_655   S
    Zr1    O75       3.29796      .   S
    N74    O76       2.27999      .   S
    Zr12   O76       3.29565      .   S
    N77    O78       2.28151  1_656   S
    Zr0    O78       3.29741      .   S
    N77    O79       2.28036      .   S
    Zr13   O79       3.29616      .   S
    N80    O81       2.28215  1_655   S
    Zr3    O81       3.29800      .   S
    N80    O82       2.27994      .   S
    Zr14   O82       3.29559      .   S
    N83    O84       2.28154  1_656   S
    Zr2    O84       3.29745      .   S
    N83    O85       2.28043      .   S
    Zr15   O85       3.29622      .   S
    N86    O87       2.28117      .   S
    Zr5    O87       3.29703      .   S
    N86    O88       2.28098      .   S
    Zr8    O88       3.29675      .   S
    N89    O90       2.28105  1_556   S
    Zr4    O90       3.29699      .   S
    N89    O91       2.28099      .   S
    Zr9    O91       3.29685      .   S
    N92    O93       2.28112      .   S
    Zr7    O93       3.29692      .   S
    N92    O94       2.28109      .   S
    Zr10   O94       3.29682      .   S
    N95    O96       2.28105  1_556   S
    Zr6    O96       3.29692      .   S
    N95    O97       2.28127      .   S
    Zr11   O97       3.29776      .   S
    N98    O99       2.34167  1_465   S
    Zr4    O99       3.36916      .   S
    N98    O100      2.33126  1_465   S
    Zr12   O100      3.33789      .   S
    N98    O101      2.34283      .   S
    Zr10   O101      3.37087      .   S
    N98    O102      2.33074      .   S
    Zr2    O102      3.33804      .   S
    N103   O104      2.33080      .   S
    Zr13   O104      3.33814      .   S
    N103   O105      2.34287      .   S
    Zr5    O105      3.37095      .   S
    N103   O106      2.34179  1_645   S
    Zr11   O106      3.36936      .   S
    N103   O107      2.33118  1_645   S
    Zr3    O107      3.33772      .   S
    N108   O109      2.34179      .   S
    Zr2    O109      3.36929      .   S
    N108   O110      2.33137      .   S
    Zr10   O110      3.33800      .   S
    N108   O111      2.34294      .   S
    Zr12   O111      3.37099      .   S
    N108   O112      2.33082      .   S
    Zr4    O112      3.33811      .   S
    N113   O114      2.33143  1_455   S
    Zr14   O114      3.33805      .   S
    N113   O115      2.34174  1_455   S
    Zr6    O115      3.36921      .   S
    N113   O116      2.34283      .   S
    Zr8    O116      3.37087      .   S
    N113   O117      2.33097      .   S
    Zr0    O117      3.33784      .   S
    N118   O119      2.34298      .   S
    Zr3    O119      3.37105      .   S
    N118   O120      2.33069      .   S
    Zr11   O120      3.33762      .   S
    N118   O121      2.34186      .   S
    Zr13   O121      3.36924      .   S
    N118   O122      2.33132      .   S
    Zr5    O122      3.33785      .   S
    N123   O124      2.34287      .   S
    Zr1    O124      3.37113      .   S
    N123   O125      2.33082      .   S
    Zr9    O125      3.33817      .   S
    N123   O126      2.34175  1_545   S
    Zr15   O126      3.36920      .   S
    N123   O127      2.33121  1_545   S
    Zr7    O127      3.33775      .   S
