# CIF file generated by openbabel 2.4.90, see http://openbabel.sf.net
data_I
_chemical_name_common ''
_cell_length_a 15.945
_cell_length_b 19.362
_cell_length_c 21.91
_cell_angle_alpha 64.228
_cell_angle_beta 88.743
_cell_angle_gamma 76.382
_space_group_name_H-M_alt 'P 1'
_space_group_name_Hall 'P 1'
loop_
    _symmetry_equiv_pos_as_xyz
    x,y,z
loop_
    _atom_site_label
    _atom_site_type_symbol
    _atom_site_fract_x
    _atom_site_fract_y
    _atom_site_fract_z
    _atom_site_occupancy
    N0      N    0.99885   0.50061   0.75033   1.000
    N1      N    0.50116   0.99936   0.24962   1.000
    N2      N    0.25000   0.49999   0.99998   1.000
    N3      N    0.25000   0.49999   0.49999   1.000
    N4      N    0.25000   0.99998   0.99999   1.000
    N5      N    0.25000   0.99999   0.49998   1.000
    N6      N    0.75002   0.49999   0.99998   1.000
    N7      N    0.75001   0.49999   0.49995   1.000
    N8      N    0.75001   0.99999   0.99998   1.000
    N9      N    0.75002   0.99999   0.49998   1.000
    N10     N    0.99976   0.24999   0.49998   1.000
    N11     N    0.99989   0.24998   0.99998   1.000
    N12     N    0.99975   0.75000   0.49997   1.000
    N13     N    0.99989   0.74998   0.99998   1.000
    N14     N    0.50001   0.25000   0.49997   1.000
    N15     N    0.50002   0.24998   0.99998   1.000
    N16     N    0.50001   0.74999   0.49999   1.000
    N17     N    0.50001   0.74999   0.99998   1.000
    N18     N    0.00116   0.99936   0.24963   1.000
    N19     N    0.99885   0.00061   0.75033   1.000
    N20     N    0.50116   0.49936   0.24963   1.000
    N21     N    0.00116   0.49936   0.24962   1.000
    N22     N    0.49884   0.50061   0.75033   1.000
    N23     N    0.49885   0.00061   0.75033   1.000
    Zr24    Zr   0.74868   0.75056   0.75034   1.000
    O25     O    0.83787   0.75726   0.82779   1.000
    O26     O    0.68910   0.82911   0.75663   1.000
    O27     O    0.76717   0.82938   0.68185   1.000
    O28     O    0.83824   0.68301   0.75463   1.000
    O29     O    0.76058   0.68239   0.82931   1.000
    O30     O    0.66020   0.74353   0.67269   1.000
    O31     O    0.65927   0.81812   0.74607   1.000
    O32     O    0.80839   0.67206   0.74405   1.000
    O33     O    0.73737   0.81849   0.67115   1.000
    O34     O    0.73088   0.67139   0.81862   1.000
    Zr35    Zr   0.25134   0.24942   0.24964   1.000
    O36     O    0.33981   0.25645   0.32728   1.000
    O37     O    0.26913   0.32858   0.18134   1.000
    O38     O    0.19163   0.32791   0.25592   1.000
    O39     O    0.26265   0.18148   0.32882   1.000
    O40     O    0.34075   0.18186   0.25390   1.000
    O41     O    0.23943   0.31758   0.17066   1.000
    O42     O    0.16177   0.31696   0.24532   1.000
    O43     O    0.23285   0.17060   0.31813   1.000
    O44     O    0.31091   0.17086   0.24334   1.000
    O45     O    0.16209   0.24272   0.17218   1.000
    Zr46    Zr   0.24866   0.25055   0.75034   1.000
    O47     O    0.33823   0.18300   0.75463   1.000
    O48     O    0.26715   0.32937   0.68185   1.000
    O49     O    0.18909   0.32911   0.75663   1.000
    O50     O    0.26057   0.18238   0.82931   1.000
    O51     O    0.33789   0.25725   0.82779   1.000
    O52     O    0.30838   0.17205   0.74404   1.000
    O53     O    0.23736   0.31848   0.67115   1.000
    O54     O    0.15926   0.31811   0.74607   1.000
    O55     O    0.23087   0.17139   0.81863   1.000
    O56     O    0.16013   0.24352   0.67268   1.000
    Zr57    Zr   0.25134   0.74943   0.24965   1.000
    O58     O    0.19163   0.82792   0.25593   1.000
    O59     O    0.33982   0.75646   0.32729   1.000
    O60     O    0.34075   0.68186   0.25390   1.000
    O61     O    0.26914   0.82859   0.18134   1.000
    O62     O    0.26265   0.68149   0.32882   1.000
    O63     O    0.31091   0.67087   0.24335   1.000
    O64     O    0.16209   0.74272   0.17219   1.000
    O65     O    0.23943   0.81759   0.17066   1.000
    O66     O    0.23285   0.67060   0.31813   1.000
    O67     O    0.16177   0.81697   0.24534   1.000
    Zr68    Zr   0.24865   0.75056   0.75030   1.000
    O69     O    0.33788   0.75726   0.82776   1.000
    O70     O    0.33822   0.68301   0.75461   1.000
    O71     O    0.18908   0.82912   0.75659   1.000
    O72     O    0.26056   0.68239   0.82929   1.000
    O73     O    0.26715   0.82938   0.68182   1.000
    O74     O    0.30837   0.67206   0.74403   1.000
    O75     O    0.15925   0.81812   0.74605   1.000
    O76     O    0.23086   0.67140   0.81862   1.000
    O77     O    0.16012   0.74353   0.67267   1.000
    O78     O    0.23735   0.81849   0.67113   1.000
    Zr79    Zr   0.75136   0.24942   0.24965   1.000
    O80     O    0.76267   0.18148   0.32882   1.000
    O81     O    0.69164   0.32791   0.25593   1.000
    O82     O    0.84076   0.18186   0.25390   1.000
    O83     O    0.76915   0.32858   0.18134   1.000
    O84     O    0.83977   0.25645   0.32729   1.000
    O85     O    0.73287   0.17059   0.31813   1.000
    O86     O    0.66179   0.31696   0.24534   1.000
    O87     O    0.73945   0.31758   0.17066   1.000
    O88     O    0.66213   0.24271   0.17219   1.000
    O89     O    0.81093   0.17086   0.24335   1.000
    Zr90    Zr   0.74867   0.25055   0.75034   1.000
    O91     O    0.68910   0.32911   0.75662   1.000
    O92     O    0.83786   0.25725   0.82779   1.000
    O93     O    0.76058   0.18239   0.82931   1.000
    O94     O    0.76716   0.32938   0.68184   1.000
    O95     O    0.83823   0.18301   0.75463   1.000
    O96     O    0.65926   0.31811   0.74607   1.000
    O97     O    0.66019   0.24352   0.67268   1.000
    O98     O    0.73736   0.31849   0.67115   1.000
    O99     O    0.73087   0.17139   0.81863   1.000
    O100    O    0.80838   0.17206   0.74405   1.000
    Zr101   Zr   0.75135   0.74943   0.24964   1.000
    O102    O    0.73286   0.67060   0.31811   1.000
    O103    O    0.66213   0.74272   0.17218   1.000
    O104    O    0.66178   0.81697   0.24534   1.000
    O105    O    0.81092   0.67087   0.24334   1.000
    O106    O    0.73944   0.81759   0.17066   1.000
    O107    O    0.76266   0.68149   0.32881   1.000
    O108    O    0.84076   0.68187   0.25390   1.000
    O109    O    0.76915   0.82859   0.18134   1.000
    O110    O    0.69163   0.82792   0.25591   1.000
    O111    O    0.83976   0.75646   0.32728   1.000
loop_
    _geom_bond_atom_site_label_1
    _geom_bond_atom_site_label_2
    _geom_bond_distance
    _geom_bond_site_symmetry_2
    _ccdc_geom_bond_type
    Zr24   O25       2.30288      .   S
    N13    O25       4.55219      .   S
    Zr24   O26       1.65256      .   S
    N23    O26       3.88894  1_545   S
    Zr24   O27       1.69379      .   S
    N9     O27       3.87816      .   S
    Zr24   O28       1.66675      .   S
    N0     O28       3.88070      .   S
    Zr24   O29       1.63789      .   S
    N6     O29       3.90542      .   S
    Zr24   O30       2.30225      .   S
    N16    O30       4.55183      .   S
    Zr24   O31       1.66544      .   S
    N23    O31       3.88027  1_545   S
    Zr24   O32       1.65235      .   S
    N0     O32       3.89047      .   S
    Zr24   O33       1.64015      .   S
    N9     O33       3.91086      .   S
    Zr24   O34       1.69132      .   S
    N6     O34       3.87359      .   S
    Zr35   O36       2.30221      .   S
    N14    O36       4.55165      .   S
    Zr35   O37       1.69140      .   S
    N2     O37       3.87368  1_556   S
    Zr35   O38       1.65228      .   S
    N21    O38       3.89032      .   S
    Zr35   O39       1.64013      .   S
    N5     O39       3.91073  1_565   S
    Zr35   O40       1.66547      .   S
    N1     O40       3.88042  1_565   S
    Zr35   O41       1.63797      .   S
    N2     O41       3.90555  1_556   S
    Zr35   O42       1.66665      .   S
    N21    O42       3.88062      .   S
    Zr35   O43       1.69374      .   S
    N5     O43       3.87804  1_565   S
    Zr35   O44       1.65264      .   S
    N1     O44       3.88903  1_565   S
    Zr35   O45       2.30361      .   S
    N11    O45       4.55409  1_656   S
    Zr46   O47       1.66678      .   S
    N23    O47       3.88070      .   S
    Zr46   O48       1.69380      .   S
    N3     O48       3.87820      .   S
    Zr46   O49       1.65259      .   S
    N0     O49       3.88894  1_655   S
    Zr46   O50       1.63793      .   S
    N4     O50       3.90547  1_565   S
    Zr46   O51       2.30326      .   S
    N15    O51       4.55318      .   S
    Zr46   O52       1.65245      .   S
    N23    O52       3.89044      .   S
    Zr46   O53       1.64016      .   S
    N3     O53       3.91091      .   S
    Zr46   O54       1.66543      .   S
    N0     O54       3.88032  1_655   S
    Zr46   O55       1.69141      .   S
    N4     O55       3.87357  1_565   S
    Zr46   O56       2.30285      .   S
    N10    O56       4.55349  1_655   S
    Zr57   O58       1.65227      .   S
    N18    O58       3.89033      .   S
    Zr57   O59       2.30219      .   S
    N16    O59       4.55173      .   S
    Zr57   O60       1.66549      .   S
    N20    O60       3.88049      .   S
    Zr57   O61       1.69139      .   S
    N4     O61       3.87361  1_556   S
    Zr57   O62       1.64013      .   S
    N3     O62       3.91082      .   S
    Zr57   O63       1.65267      .   S
    N20    O63       3.88910      .   S
    Zr57   O64       2.30359      .   S
    N13    O64       4.55409  1_656   S
    Zr57   O65       1.63796      .   S
    N4     O65       3.90548  1_556   S
    Zr57   O66       1.69377      .   S
    N3     O66       3.87811      .   S
    Zr57   O67       1.66672      .   S
    N18    O67       3.88052      .   S
    Zr68   O69       2.30338      .   S
    N17    O69       4.55358      .   S
    Zr68   O70       1.66673      .   S
    N22    O70       3.88052      .   S
    Zr68   O71       1.65258      .   S
    N19    O71       3.88906  1_645   S
    Zr68   O72       1.63805      .   S
    N2     O72       3.90581      .   S
    Zr68   O73       1.69372      .   S
    N5     O73       3.87784      .   S
    Zr68   O74       1.65218      .   S
    N22    O74       3.89043      .   S
    Zr68   O75       1.66550      .   S
    N19    O75       3.88035  1_645   S
    Zr68   O76       1.69159      .   S
    N2     O76       3.87381      .   S
    Zr68   O77       2.30259      .   S
    N12    O77       4.55325  1_655   S
    Zr68   O78       1.63990      .   S
    N5     O78       3.91070      .   S
    Zr79   O80       1.64011      .   S
    N9     O80       3.91076  1_565   S
    Zr79   O81       1.65231      .   S
    N20    O81       3.89048      .   S
    Zr79   O82       1.66543      .   S
    N18    O82       3.88031  1_465   S
    Zr79   O83       1.69145      .   S
    N6     O83       3.87378  1_556   S
    Zr79   O84       2.30151      .   S
    N10    O84       4.54987      .   S
    Zr79   O85       1.69375      .   S
    N9     O85       3.87805  1_565   S
    Zr79   O86       1.66677      .   S
    N20    O86       3.88066      .   S
    Zr79   O87       1.63801      .   S
    N6     O87       3.90565  1_556   S
    Zr79   O88       2.30332      .   S
    N15    O88       4.55329  1_556   S
    Zr79   O89       1.65261      .   S
    N18    O89       3.88892  1_465   S
    Zr90   O91       1.65256      .   S
    N22    O91       3.88910      .   S
    Zr90   O92       2.30287      .   S
    N11    O92       4.55211      .   S
    Zr90   O93       1.63791      .   S
    N8     O93       3.90544  1_565   S
    Zr90   O94       1.69389      .   S
    N7     O94       3.87853      .   S
    Zr90   O95       1.66673      .   S
    N19    O95       3.88063      .   S
    Zr90   O96       1.66547      .   S
    N22    O96       3.88041      .   S
    Zr90   O97       2.30229      .   S
    N14    O97       4.55192      .   S
    Zr90   O98       1.64028      .   S
    N7     O98       3.91120      .   S
    Zr90   O99       1.69131      .   S
    N8     O99       3.87363  1_565   S
    Zr90   O100      1.65233      .   S
    N19    O100      3.89041      .   S
    Zr101  O102      1.69357      .   S
    N7     O102      3.87799      .   S
    Zr101  O103      2.30332      .   S
    N17    O103      4.55330  1_556   S
    Zr101  O104      1.66674      .   S
    N1     O104      3.88057      .   S
    Zr101  O105      1.65268      .   S
    N21    O105      3.88907  1_455   S
    Zr101  O106      1.63796      .   S
    N8     O106      3.90549  1_556   S
    Zr101  O107      1.64005      .   S
    N7     O107      3.91055      .   S
    Zr101  O108      1.66547      .   S
    N21    O108      3.88050  1_455   S
    Zr101  O109      1.69139      .   S
    N8     O109      3.87363  1_556   S
    Zr101  O110      1.65217      .   S
    N1     O110      3.89047      .   S
    Zr101  O111      2.30151      .   S
    N12    O111      4.54982      .   S
