# CIF file generated by openbabel 2.4.90, see http://openbabel.sf.net
data_I
_chemical_name_common ''
_cell_length_a 13.642
_cell_length_b 14.788
_cell_length_c 15.137
_cell_angle_alpha 90
_cell_angle_beta 90.001
_cell_angle_gamma 90
_space_group_name_H-M_alt 'P 1'
_space_group_name_Hall 'P 1'
loop_
    _symmetry_equiv_pos_as_xyz
    x,y,z
loop_
    _atom_site_label
    _atom_site_type_symbol
    _atom_site_fract_x
    _atom_site_fract_y
    _atom_site_fract_z
    _atom_site_occupancy
    H0      H    0.37324   0.14871   0.25574   1.000
    H1      H    0.87311   0.14866   0.25570   1.000
    H2      H    0.39542   0.03308   0.13747   1.000
    H3      H    0.89532   0.03307   0.13745   1.000
    H4      H    0.48560   0.00000   0.52199   1.000
    H5      H    0.98555   0.00000   0.52194   1.000
    H6      H    0.54456   0.72888   0.44350   1.000
    H7      H    0.00000   0.72881   0.44351   1.000
    H8      H    0.49718   0.76517   0.28945   1.000
    H9      H    0.99709   0.76511   0.28938   1.000
    H10     H    0.53829   0.84833   0.55958   1.000
    H11     H    0.00000   0.84826   0.55952   1.000
    H12     H    0.37681   0.85126   0.75577   1.000
    H13     H    0.87680   0.85126   0.75576   1.000
    H14     H    0.35461   0.96689   0.63749   1.000
    H15     H    0.85463   0.96688   0.63748   1.000
    H16     H    0.26438   0.99670   0.02196   1.000
    H17     H    0.76439   0.99672   0.02195   1.000
    H18     H    0.20549   0.27111   0.94358   1.000
    H19     H    0.70546   0.27111   0.94354   1.000
    H20     H    0.25291   0.23483   0.78946   1.000
    H21     H    0.75285   0.23481   0.78941   1.000
    H22     H    0.21169   0.15164   0.05955   1.000
    H23     H    0.71169   0.15166   0.05953   1.000
    H24     H    0.12694   0.64865   0.24425   1.000
    H25     H    0.62678   0.64870   0.24426   1.000
    H26     H    0.10474   0.53307   0.36256   1.000
    H27     H    0.60459   0.53308   0.36254   1.000
    H28     H    0.01444   0.50320   0.97810   1.000
    H29     H    0.51436   0.50328   0.97806   1.000
    H30     H    0.95555   0.22881   0.05654   1.000
    H31     H    0.45542   0.22889   0.05646   1.000
    H32     H    0.00294   0.26514   0.21066   1.000
    H33     H    0.50284   0.26518   0.21058   1.000
    H34     H    0.96176   0.34825   0.94054   1.000
    H35     H    0.46165   0.34834   0.94047   1.000
    H36     H    0.12315   0.35129   0.74420   1.000
    H37     H    0.62322   0.35128   0.74423   1.000
    H38     H    0.14534   0.46689   0.86256   1.000
    H39     H    0.64540   0.46692   0.86250   1.000
    H40     H    0.23563   0.49671   0.47807   1.000
    H41     H    0.73564   0.49668   0.47800   1.000
    H42     H    0.29453   0.77111   0.55651   1.000
    H43     H    0.79459   0.77107   0.55641   1.000
    H44     H    0.24712   0.73481   0.71063   1.000
    H45     H    0.74715   0.73480   0.71053   1.000
    H46     H    0.28832   0.65165   0.44050   1.000
    H47     H    0.78834   0.65161   0.44041   1.000
    C48     C    0.42705   0.06336   0.35904   1.000
    C49     C    0.92698   0.06332   0.35902   1.000
    C50     C    0.46154   0.97506   0.38300   1.000
    C51     C    0.96147   0.97500   0.38298   1.000
    C52     C    0.40019   0.08142   0.27235   1.000
    C53     C    0.90008   0.08138   0.27234   1.000
    C54     C    0.46592   0.90605   0.31574   1.000
    C55     C    0.96583   0.90600   0.31568   1.000
    C56     C    0.42214   0.14019   0.42254   1.000
    C57     C    0.92210   0.14014   0.42253   1.000
    C58     C    0.41131   0.01591   0.20601   1.000
    C59     C    0.91120   0.01588   0.20598   1.000
    C60     C    0.44256   0.92922   0.22641   1.000
    C61     C    0.94249   0.92920   0.22635   1.000
    C62     C    0.45111   0.86237   0.15148   1.000
    C63     C    0.95114   0.86242   0.15136   1.000
    C64     C    0.48819   0.95150   0.47097   1.000
    C65     C    0.98813   0.95143   0.47092   1.000
    C66     C    0.52150   0.79717   0.42601   1.000
    C67     C    0.00000   0.79711   0.42594   1.000
    C68     C    0.49602   0.81739   0.34010   1.000
    C69     C    0.99593   0.81733   0.34004   1.000
    C70     C    0.51768   0.86483   0.49184   1.000
    C71     C    0.00000   0.86476   0.49178   1.000
    C72     C    0.32299   0.93662   0.85906   1.000
    C73     C    0.82295   0.93661   0.85904   1.000
    C74     C    0.28847   0.02492   0.88303   1.000
    C75     C    0.78849   0.02493   0.88302   1.000
    C76     C    0.34984   0.91855   0.77237   1.000
    C77     C    0.84986   0.91855   0.77236   1.000
    C78     C    0.28416   0.09394   0.81570   1.000
    C79     C    0.78408   0.09392   0.81570   1.000
    C80     C    0.32786   0.85978   0.92255   1.000
    C81     C    0.82786   0.85978   0.92254   1.000
    C82     C    0.33875   0.98407   0.70603   1.000
    C83     C    0.83872   0.98405   0.70601   1.000
    C84     C    0.30748   0.07075   0.72642   1.000
    C85     C    0.80749   0.07075   0.72639   1.000
    C86     C    0.29890   0.13758   0.65140   1.000
    C87     C    0.79888   0.13757   0.65140   1.000
    C88     C    0.26182   0.04848   0.97098   1.000
    C89     C    0.76179   0.04849   0.97095   1.000
    C90     C    0.22856   0.20282   0.92601   1.000
    C91     C    0.72850   0.20281   0.92597   1.000
    C92     C    0.25403   0.18260   0.84011   1.000
    C93     C    0.75401   0.18260   0.84008   1.000
    C94     C    0.23231   0.13514   0.99180   1.000
    C95     C    0.73232   0.13516   0.99181   1.000
    C96     C    0.07305   0.56330   0.14098   1.000
    C97     C    0.57296   0.56335   0.14090   1.000
    C98     C    0.03854   0.47501   0.11704   1.000
    C99     C    0.53845   0.47507   0.11699   1.000
    C100    C    0.09995   0.58137   0.22767   1.000
    C101    C    0.59982   0.58141   0.22766   1.000
    C102    C    0.03418   0.40601   0.18435   1.000
    C103    C    0.53409   0.40606   0.18428   1.000
    C104    C    0.07791   0.64013   0.07748   1.000
    C105    C    0.57787   0.64017   0.07746   1.000
    C106    C    0.08884   0.51588   0.29403   1.000
    C107    C    0.58871   0.51590   0.29400   1.000
    C108    C    0.05753   0.42922   0.27368   1.000
    C109    C    0.55745   0.42924   0.27360   1.000
    C110    C    0.04886   0.36245   0.34867   1.000
    C111    C    0.54887   0.36240   0.34855   1.000
    C112    C    0.01188   0.45143   0.02910   1.000
    C113    C    0.51179   0.45151   0.02905   1.000
    C114    C    0.97860   0.29711   0.07410   1.000
    C115    C    0.47849   0.29718   0.07402   1.000
    C116    C    0.00408   0.31735   0.16000   1.000
    C117    C    0.50398   0.31740   0.15992   1.000
    C118    C    0.98239   0.36476   0.00826   1.000
    C119    C    0.48229   0.36484   0.00819   1.000
    C120    C    0.17701   0.43663   0.64099   1.000
    C121    C    0.67702   0.43663   0.64093   1.000
    C122    C    0.21152   0.52492   0.61703   1.000
    C123    C    0.71156   0.52490   0.61696   1.000
    C124    C    0.15012   0.41857   0.72767   1.000
    C125    C    0.65018   0.41856   0.72763   1.000
    C126    C    0.21588   0.59392   0.68432   1.000
    C127    C    0.71586   0.59393   0.68423   1.000
    C128    C    0.17213   0.35980   0.57749   1.000
    C129    C    0.67214   0.35979   0.57745   1.000
    C130    C    0.16123   0.48407   0.79400   1.000
    C131    C    0.66126   0.48409   0.79396   1.000
    C132    C    0.19252   0.57073   0.77365   1.000
    C133    C    0.69254   0.57074   0.77356   1.000
    C134    C    0.20113   0.63754   0.84861   1.000
    C135    C    0.70108   0.63760   0.84848   1.000
    C136    C    0.23819   0.54848   0.52909   1.000
    C137    C    0.73819   0.54846   0.52900   1.000
    C138    C    0.27147   0.70281   0.57407   1.000
    C139    C    0.77150   0.70279   0.57397   1.000
    C140    C    0.24598   0.68259   0.65997   1.000
    C141    C    0.74603   0.68257   0.65988   1.000
    C142    C    0.26769   0.63515   0.50824   1.000
    C143    C    0.76772   0.63511   0.50815   1.000
    O144    O    0.34920   0.19455   0.41876   1.000
    O145    O    0.84920   0.19453   0.41874   1.000
    O146    O    0.49203   0.15299   0.47775   1.000
    O147    O    0.99202   0.15294   0.47773   1.000
    O148    O    0.40327   0.78871   0.15703   1.000
    O149    O    0.90331   0.78874   0.15673   1.000
    O150    O    0.00452   0.88623   0.08655   1.000
    O151    O    0.50440   0.88609   0.08657   1.000
    O152    O    0.40079   0.80541   0.91876   1.000
    O153    O    0.90079   0.80542   0.91877   1.000
    O154    O    0.25797   0.84699   0.97776   1.000
    O155    O    0.75795   0.84698   0.97774   1.000
    O156    O    0.34674   0.21124   0.65690   1.000
    O157    O    0.84671   0.21123   0.65694   1.000
    O158    O    0.24558   0.11381   0.58660   1.000
    O159    O    0.74557   0.11382   0.58656   1.000
    O160    O    0.15081   0.69452   0.08126   1.000
    O161    O    0.65081   0.69452   0.08124   1.000
    O162    O    0.00799   0.65292   0.02228   1.000
    O163    O    0.50797   0.65298   0.02226   1.000
    O164    O    0.09669   0.28877   0.34330   1.000
    O165    O    0.59672   0.28874   0.34306   1.000
    O166    O    0.49558   0.38615   0.41344   1.000
    O167    O    0.99548   0.38626   0.41348   1.000
    O168    O    0.09921   0.30543   0.58127   1.000
    O169    O    0.59922   0.30541   0.58126   1.000
    O170    O    0.24204   0.34700   0.52200   1.000
    O171    O    0.74204   0.34698   0.52225   1.000
    O172    O    0.15329   0.71121   0.84316   1.000
    O173    O    0.65323   0.71125   0.84296   1.000
    O174    O    0.25446   0.61378   0.91348   1.000
    O175    O    0.75438   0.61386   0.91337   1.000
loop_
    _geom_bond_atom_site_label_1
    _geom_bond_atom_site_label_2
    _geom_bond_distance
    _geom_bond_site_symmetry_2
    _ccdc_geom_bond_type
    C119   C113      1.37988      .   S
    C119   C115      1.41309      .   S
    C119   H35       1.09067  1_554   S
    C118   C112      1.37985  1_655   S
    C118   C114      1.41309      .   S
    C118   H34       1.09070  1_554   S
    H17    C89       1.08773  1_564   S
    H16    C88       1.08765  1_564   S
    O163   C105      1.28193      .   S
    O162   C104      1.28201      .   S
    C113   C99       1.42325      .   S
    C113   H29       1.08768  1_554   S
    C112   C98       1.42330      .   S
    C112   H28       1.08772  1_554   S
    H31    C115      1.09068      .   S
    H30    C114      1.09071      .   S
    H23    C95       1.09066  1_554   S
    H22    C94       1.09104  1_554   S
    C115   C117      1.37875      .   S
    C114   C116      1.37877  1_655   S
    C105   O161      1.28038      .   S
    C105   C97       1.48901      .   S
    C104   O160      1.28041      .   S
    C104   C96       1.48964      .   S
    O150   C63       1.27149  1_455   S
    O151   C62       1.27153      .   S
    C99    C97       1.43421      .   S
    C99    C103      1.44306      .   S
    C98    C96       1.43445      .   S
    C98    C102      1.44315      .   S
    H3     C59       1.08977      .   S
    H2     C58       1.08986      .   S
    C97    C101      1.38937      .   S
    C96    C100      1.38854      .   S
    C63    O149      1.27257      .   S
    C63    C61       1.50914      .   S
    C62    O148      1.27261      .   S
    C62    C60       1.50913      .   S
    C117   C103      1.42259      .   S
    C117   H33       1.08839      .   S
    C116   C102      1.42260      .   S
    C116   H32       1.08832      .   S
    C103   C109      1.43075      .   S
    C102   C108      1.43096      .   S
    C59    C61       1.38585  1_545   S
    C59    C53       1.40362      .   S
    C58    C60       1.38582  1_545   S
    C58    C52       1.40356      .   S
    C61    C55       1.43092      .   S
    C60    C54       1.43086      .   S
    C101   H25       1.09017      .   S
    C101   C107      1.40350      .   S
    C100   H24       1.09016      .   S
    C100   C106      1.40354      .   S
    H1     C53       1.09032      .   S
    H0     C52       1.09019      .   S
    C53    C49       1.38834      .   S
    C52    C48       1.38833      .   S
    C109   C107      1.38551      .   S
    C109   C111      1.50922      .   S
    C108   C106      1.38547      .   S
    C108   C110      1.50916      .   S
    H9     C69       1.08837      .   S
    H8     C68       1.08829      .   S
    C107   H27       1.08986      .   S
    C106   H26       1.08983      .   S
    C55    C69       1.42260      .   S
    C55    C51       1.44310      .   S
    C54    C68       1.42258      .   S
    C54    C50       1.44276      .   S
    C69    C67       1.33537  1_655   S
    C68    C66       1.37883      .   S
    O165   C111      1.27261      .   S
    O164   C110      1.27259      .   S
    C111   O166      1.27151      .   S
    C110   O167      1.27150  1_455   S
    C49    C51       1.43483  1_545   S
    C49    C57       1.48972      .   S
    C48    C50       1.43471  1_545   S
    C48    C56       1.48969      .   S
    C51    C65       1.42325      .   S
    C50    C64       1.42362      .   S
    O145   C57       1.28040      .   S
    O144   C56       1.28039      .   S
    C57    O147      1.28200      .   S
    C56    O146      1.28191      .   S
    C67    H7        1.04439      .   S
    C67    C71       1.41220      .   S
    C66    H6        1.09043      .   S
    C66    C70       1.41309      .   S
    H47    C143      1.09090      .   S
    H46    C142      1.09097      .   S
    C65    C71       1.32984  1_655   S
    C65    H5        1.05525  1_565   S
    C64    C70       1.37990      .   S
    C64    H4        1.05458  1_565   S
    H41    C137      1.08786      .   S
    H40    C136      1.08802      .   S
    C71    H11       1.05403      .   S
    C70    H10       1.09086      .   S
    C143   C137      1.37987      .   S
    C143   C139      1.41308      .   S
    C142   C136      1.37987      .   S
    C142   C138      1.41307      .   S
    O170   C128      1.28488      .   S
    O171   C129      1.28194      .   S
    C137   C123      1.42344      .   S
    C136   C122      1.42331      .   S
    H43    C139      1.09069      .   S
    H42    C138      1.09069      .   S
    C139   C141      1.37884      .   S
    C138   C140      1.37878      .   S
    C129   O169      1.28040      .   S
    C129   C121      1.48958      .   S
    C128   O168      1.28041      .   S
    C128   C120      1.48970      .   S
    O159   C87       1.27102      .   S
    O158   C86       1.27070      .   S
    C123   C121      1.43444      .   S
    C123   C127      1.44302      .   S
    C122   C120      1.43447      .   S
    C122   C126      1.44303      .   S
    H15    C83       1.08978      .   S
    H14    C82       1.08983      .   S
    C121   C125      1.38842      .   S
    C120   C124      1.38832      .   S
    C86    O156      1.27262      .   S
    C86    C84       1.50997      .   S
    C87    O157      1.27264      .   S
    C87    C85       1.50955      .   S
    C141   C127      1.42258      .   S
    C141   H45       1.08834      .   S
    C140   C126      1.42257      .   S
    C140   H44       1.08837      .   S
    C127   C133      1.43080      .   S
    C126   C132      1.43093      .   S
    C83    C85       1.38580  1_565   S
    C83    C77       1.40352      .   S
    C82    C84       1.38581  1_565   S
    C82    C76       1.40355      .   S
    C85    C79       1.43075      .   S
    C84    C78       1.43012      .   S
    C125   H37       1.09017      .   S
    C125   C131      1.40351      .   S
    C124   H36       1.08996      .   S
    C124   C130      1.40333      .   S
    H13    C77       1.09017      .   S
    H12    C76       1.09019      .   S
    C77    C73       1.38837      .   S
    C76    C72       1.38835      .   S
    C133   C131      1.38545      .   S
    C133   C135      1.50904      .   S
    C132   C130      1.38539      .   S
    C132   C134      1.50910      .   S
    H21    C93       1.08842      .   S
    H20    C92       1.08836      .   S
    C131   H39       1.08981      .   S
    C130   H38       1.09021      .   S
    C79    C93       1.42266      .   S
    C79    C75       1.44322      .   S
    C78    C92       1.42281      .   S
    C78    C74       1.44360      .   S
    C93    C91       1.37870      .   S
    C92    C90       1.37871      .   S
    O173   C135      1.27260      .   S
    O172   C134      1.27260      .   S
    C135   O175      1.27152      .   S
    C134   O174      1.27159      .   S
    C73    C75       1.43483  1_565   S
    C73    C81       1.48966      .   S
    C72    C74       1.43480  1_565   S
    C72    C80       1.48964      .   S
    C75    C89       1.42325      .   S
    C74    C88       1.42335      .   S
    O152   C80       1.28039      .   S
    O153   C81       1.28041      .   S
    C81    O155      1.28201      .   S
    C80    O154      1.28197      .   S
    C91    H19       1.09072      .   S
    C91    C95       1.41311      .   S
    C90    H18       1.09072      .   S
    C90    C94       1.41275      .   S
    C89    C95       1.37989      .   S
    C88    C94       1.37975      .   S
