# CIF file generated by openbabel 2.4.90, see http://openbabel.sf.net
data_I
_chemical_name_common ''
_cell_length_a 13.642
_cell_length_b 14.788
_cell_length_c 15.137
_cell_angle_alpha 90
_cell_angle_beta 90.001
_cell_angle_gamma 90
_space_group_name_H-M_alt 'P 1'
_space_group_name_Hall 'P 1'
loop_
    _symmetry_equiv_pos_as_xyz
    x,y,z
loop_
    _atom_site_label
    _atom_site_type_symbol
    _atom_site_fract_x
    _atom_site_fract_y
    _atom_site_fract_z
    _atom_site_occupancy
    N0      N    0.45856   0.95232   0.33697   1.000
    N1      N    0.95298   0.95229   0.33692   1.000
    N2      N    0.04151   0.45244   0.16311   1.000
    N3      N    0.79145   0.04751   0.83695   1.000
    N4      N    0.29146   0.04751   0.83697   1.000
    N5      N    0.54143   0.45247   0.16304   1.000
    N6      N    0.20854   0.54751   0.66307   1.000
    N7      N    0.70856   0.54750   0.66301   1.000
    Zr8     Zr   0.67060   0.19383   0.46041   1.000
    O9      O    0.76352   0.13353   0.42433   1.000
    O10     O    0.71018   0.14725   0.57031   1.000
    O11     O    0.62907   0.27035   0.37140   1.000
    O12     O    0.59527   0.12835   0.43172   1.000
    Zr13    Zr   0.17061   0.19379   0.46049   1.000
    O14     O    0.09388   0.12831   0.43175   1.000
    O15     O    0.12910   0.27032   0.37150   1.000
    O16     O    0.21020   0.14722   0.57037   1.000
    O17     O    0.26492   0.13352   0.42439   1.000
    Zr18    Zr   0.57940   0.80612   0.96042   1.000
    O19     O    0.62092   0.72961   0.87138   1.000
    O20     O    0.65473   0.87157   0.93172   1.000
    O21     O    0.48509   0.86638   0.92435   1.000
    O22     O    0.53981   0.85266   0.07033   1.000
    Zr23    Zr   0.32941   0.69384   0.03960   1.000
    O24     O    0.23511   0.63357   0.07568   1.000
    O25     O    0.40474   0.62839   0.06829   1.000
    O26     O    0.28983   0.64725   0.92970   1.000
    O27     O    0.37093   0.77032   0.12862   1.000
    Zr28    Zr   0.92060   0.30612   0.53958   1.000
    O29     O    0.96019   0.35272   0.42970   1.000
    O30     O    0.87908   0.22961   0.62859   1.000
    O31     O    0.01491   0.36638   0.57566   1.000
    O32     O    0.84527   0.37157   0.56827   1.000
    Zr33    Zr   0.07940   0.80612   0.96046   1.000
    O34     O    0.98508   0.86638   0.92437   1.000
    O35     O    0.03843   0.85268   0.07034   1.000
    O36     O    0.15473   0.87158   0.93175   1.000
    O37     O    0.12092   0.72960   0.87145   1.000
    Zr38    Zr   0.42061   0.30616   0.53959   1.000
    O39     O    0.51492   0.36640   0.57565   1.000
    O40     O    0.37909   0.22963   0.62860   1.000
    O41     O    0.46019   0.35273   0.42969   1.000
    O42     O    0.34527   0.37160   0.56826   1.000
    Zr43    Zr   0.82940   0.69377   0.03951   1.000
    O44     O    0.78981   0.64721   0.92962   1.000
    O45     O    0.86953   0.77027   0.12851   1.000
    O46     O    0.90475   0.62833   0.06826   1.000
    O47     O    0.73509   0.63354   0.07561   1.000
    O48     O    0.68009   0.29879   0.52248   1.000
    O49     O    0.18010   0.29877   0.52253   1.000
    O50     O    0.81991   0.79876   0.97746   1.000
    O51     O    0.31992   0.79880   0.97752   1.000
    O52     O    0.92870   0.20111   0.47750   1.000
    O53     O    0.06993   0.70115   0.02254   1.000
    O54     O    0.56990   0.70116   0.02249   1.000
    O55     O    0.43010   0.20115   0.47752   1.000
loop_
    _geom_bond_atom_site_label_1
    _geom_bond_atom_site_label_2
    _geom_bond_distance
    _geom_bond_site_symmetry_2
    _ccdc_geom_bond_type
    Zr8    O9        1.64324      .   S
    N1     O9        3.95152  1_565   S
    Zr8    O10       1.87981      .   S
    N3     O10       4.43785      .   S
    Zr8    O11       1.84848      .   S
    N5     O11       4.31618      .   S
    Zr8    O12       1.47729      .   S
    N0     O12       3.50870  1_565   S
    Zr13   O14       1.49087      .   S
    N1     O14       3.53990  1_665   S
    Zr13   O15       1.84836      .   S
    N2     O15       4.31632      .   S
    Zr13   O16       1.87946      .   S
    N4     O16       4.43712      .   S
    Zr13   O17       1.65781      .   S
    N0     O17       3.98868  1_565   S
    Zr18   O19       1.84863      .   S
    N7     O19       4.31633      .   S
    Zr18   O20       1.47711      .   S
    N3     O20       3.50789  1_545   S
    Zr18   O21       1.65755      .   S
    N4     O21       3.98764  1_545   S
    Zr18   O22       1.87967  1_556   S
    N0     O22       4.43748      .   S
    Zr23   O24       1.65758      .   S
    N2     O24       3.98773      .   S
    Zr23   O25       1.47693      .   S
    N5     O25       3.50743      .   S
    Zr23   O26       1.87979  1_554   S
    N6     O26       4.43786      .   S
    Zr23   O27       1.84815      .   S
    N0     O27       4.31497      .   S
    Zr28   O29       1.87962      .   S
    N2     O29       4.43735  1_455   S
    Zr28   O30       1.84842      .   S
    N3     O30       4.31604      .   S
    Zr28   O31       1.65763  1_655   S
    N6     O31       3.98776      .   S
    Zr28   O32       1.47702      .   S
    N7     O32       3.50760      .   S
    Zr33   O34       1.65766  1_455   S
    N3     O34       3.98790  1_545   S
    Zr33   O35       1.88481  1_556   S
    N1     O35       4.45110  1_655   S
    Zr33   O36       1.47719      .   S
    N4     O36       3.50802  1_545   S
    Zr33   O37       1.84842      .   S
    N6     O37       4.31623      .   S
    Zr38   O39       1.65743      .   S
    N7     O39       3.98732      .   S
    Zr38   O40       1.84846      .   S
    N4     O40       4.31636      .   S
    Zr38   O41       1.87981      .   S
    N5     O41       4.43783      .   S
    Zr38   O42       1.47690      .   S
    N6     O42       3.50792      .   S
    Zr43   O44       1.87954  1_554   S
    N7     O44       4.43729      .   S
    Zr43   O45       1.84247      .   S
    N1     O45       4.30026      .   S
    Zr43   O46       1.47730      .   S
    N2     O46       3.50819  1_455   S
    Zr43   O47       1.65754      .   S
    N5     O47       3.98754      .   S
    N7     O48       4.26647      .   S
    Zr8    O48       1.81902      .   S
    Zr13   O49       1.81901      .   S
    N6     O49       4.26685      .   S
    Zr43   O50       1.81916  1_554   S
    N3     O50       4.26685  1_545   S
    Zr23   O51       1.81905  1_554   S
    N4     O51       4.26662  1_545   S
    N1     O52       4.26353  1_565   S
    Zr28   O52       1.81842      .   S
    Zr33   O53       1.81915  1_556   S
    N2     O53       4.26677      .   S
    Zr18   O54       1.81896  1_556   S
    N5     O54       4.26637      .   S
    Zr38   O55       1.81960      .   S
    N0     O55       4.26817  1_565   S
