# CIF file generated by openbabel 2.4.90, see http://openbabel.sf.net
data_I
_chemical_name_common ''
_cell_length_a 13.642
_cell_length_b 14.788
_cell_length_c 15.137
_cell_angle_alpha 90
_cell_angle_beta 90.001
_cell_angle_gamma 90
_space_group_name_H-M_alt 'P 1'
_space_group_name_Hall 'P 1'
loop_
    _symmetry_equiv_pos_as_xyz
    x,y,z
loop_
    _atom_site_label
    _atom_site_type_symbol
    _atom_site_fract_x
    _atom_site_fract_y
    _atom_site_fract_z
    _atom_site_occupancy
    N0      N    0.45856   0.95232   0.33697   1.000
    N1      N    0.95298   0.95229   0.33692   1.000
    N2      N    0.04151   0.45244   0.16311   1.000
    N3      N    0.79145   0.04751   0.83695   1.000
    N4      N    0.29146   0.04751   0.83697   1.000
    N5      N    0.54143   0.45247   0.16304   1.000
    N6      N    0.20854   0.54751   0.66307   1.000
    N7      N    0.70856   0.54750   0.66301   1.000
    Zr8     Zr   0.67060   0.19383   0.46041   1.000
    O9      O    0.67117   0.29620   0.52617   1.000
    O10     O    0.76352   0.13353   0.42433   1.000
    O11     O    0.71018   0.14725   0.57031   1.000
    O12     O    0.68902   0.30139   0.51879   1.000
    O13     O    0.62907   0.27035   0.37140   1.000
    O14     O    0.59527   0.12835   0.43172   1.000
    Zr15    Zr   0.17061   0.19379   0.46049   1.000
    O16     O    0.09388   0.12831   0.43175   1.000
    O17     O    0.12910   0.27032   0.37150   1.000
    O18     O    0.21020   0.14722   0.57037   1.000
    O19     O    0.18902   0.30137   0.51882   1.000
    O20     O    0.17117   0.29617   0.52623   1.000
    O21     O    0.26492   0.13352   0.42439   1.000
    Zr22    Zr   0.57940   0.80612   0.96042   1.000
    O23     O    0.62092   0.72961   0.87138   1.000
    O24     O    0.65473   0.87157   0.93172   1.000
    O25     O    0.48509   0.86638   0.92435   1.000
    O26     O    0.56098   0.69856   0.01881   1.000
    O27     O    0.57883   0.70376   0.02618   1.000
    O28     O    0.53981   0.85266   0.07033   1.000
    Zr29    Zr   0.32941   0.69384   0.03960   1.000
    O30     O    0.23511   0.63357   0.07568   1.000
    O31     O    0.31099   0.80140   0.98121   1.000
    O32     O    0.32885   0.79620   0.97384   1.000
    O33     O    0.40474   0.62839   0.06829   1.000
    O34     O    0.28983   0.64725   0.92970   1.000
    O35     O    0.37093   0.77032   0.12862   1.000
    Zr36    Zr   0.92060   0.30612   0.53958   1.000
    O37     O    0.91977   0.20371   0.47381   1.000
    O38     O    0.93762   0.19851   0.48118   1.000
    O39     O    0.96019   0.35272   0.42970   1.000
    O40     O    0.87908   0.22961   0.62859   1.000
    O41     O    0.01491   0.36638   0.57566   1.000
    O42     O    0.84527   0.37157   0.56827   1.000
    Zr43    Zr   0.07940   0.80612   0.96046   1.000
    O44     O    0.06100   0.69855   0.01885   1.000
    O45     O    0.07885   0.70375   0.02622   1.000
    O46     O    0.98508   0.86638   0.92437   1.000
    O47     O    0.03843   0.85268   0.07034   1.000
    O48     O    0.15473   0.87158   0.93175   1.000
    O49     O    0.12092   0.72960   0.87145   1.000
    Zr50    Zr   0.42061   0.30616   0.53959   1.000
    O51     O    0.51492   0.36640   0.57565   1.000
    O52     O    0.37909   0.22963   0.62860   1.000
    O53     O    0.46019   0.35273   0.42969   1.000
    O54     O    0.34527   0.37160   0.56826   1.000
    O55     O    0.42117   0.20375   0.47383   1.000
    O56     O    0.43902   0.19855   0.48120   1.000
    Zr57    Zr   0.82940   0.69377   0.03951   1.000
    O58     O    0.78981   0.64721   0.92962   1.000
    O59     O    0.86953   0.77027   0.12851   1.000
    O60     O    0.90475   0.62833   0.06826   1.000
    O61     O    0.81098   0.80135   0.98115   1.000
    O62     O    0.82884   0.79616   0.97378   1.000
    O63     O    0.73509   0.63354   0.07561   1.000
loop_
    _geom_bond_atom_site_label_1
    _geom_bond_atom_site_label_2
    _geom_bond_distance
    _geom_bond_site_symmetry_2
    _ccdc_geom_bond_type
    Zr8    O9        1.81173      .   S
    N7     O9        4.28507      .   S
    Zr8    O10       1.64324      .   S
    N1     O10       3.95152  1_565   S
    Zr8    O11       1.87981      .   S
    N3     O11       4.43785      .   S
    Zr8    O12       1.83689      .   S
    N7     O12       4.25235      .   S
    Zr8    O13       1.84848      .   S
    N5     O13       4.31618      .   S
    Zr8    O14       1.47729      .   S
    N0     O14       3.50870  1_565   S
    Zr15   O16       1.49087      .   S
    N1     O16       3.53990  1_665   S
    Zr15   O17       1.84836      .   S
    N2     O17       4.31632      .   S
    Zr15   O18       1.87946      .   S
    N4     O18       4.43712      .   S
    Zr15   O19       1.83678      .   S
    N6     O19       4.25287      .   S
    Zr15   O20       1.81183      .   S
    N6     O20       4.28534      .   S
    Zr15   O21       1.65781      .   S
    N0     O21       3.98868  1_565   S
    Zr22   O23       1.84863      .   S
    N7     O23       4.31633      .   S
    Zr22   O24       1.47711      .   S
    N3     O24       3.50789  1_545   S
    Zr22   O25       1.65755      .   S
    N4     O25       3.98764  1_545   S
    Zr22   O26       1.83682  1_556   S
    N5     O26       4.25226      .   S
    Zr22   O27       1.81168  1_556   S
    N5     O27       4.28496      .   S
    Zr22   O28       1.87967  1_556   S
    N0     O28       4.43748      .   S
    Zr29   O30       1.65758      .   S
    N2     O30       3.98773      .   S
    Zr29   O31       1.83693  1_554   S
    N4     O31       4.25250  1_545   S
    Zr29   O32       1.81175  1_554   S
    N4     O32       4.28523  1_545   S
    Zr29   O33       1.47693      .   S
    N5     O33       3.50743      .   S
    Zr29   O34       1.87979  1_554   S
    N6     O34       4.43786      .   S
    Zr29   O35       1.84815      .   S
    N0     O35       4.31497      .   S
    Zr36   O37       1.81237      .   S
    N1     O37       4.28056  1_565   S
    Zr36   O38       1.83507      .   S
    N1     O38       4.25100  1_565   S
    Zr36   O39       1.87962      .   S
    N2     O39       4.43735  1_455   S
    Zr36   O40       1.84842      .   S
    N3     O40       4.31604      .   S
    Zr36   O41       1.65763  1_655   S
    N6     O41       3.98776      .   S
    Zr36   O42       1.47702      .   S
    N7     O42       3.50760      .   S
    Zr43   O44       1.83704  1_556   S
    N2     O44       4.25264      .   S
    Zr43   O45       1.81183  1_556   S
    N2     O45       4.28539      .   S
    Zr43   O46       1.65766  1_455   S
    N3     O46       3.98790  1_545   S
    Zr43   O47       1.88481  1_556   S
    N1     O47       4.45110  1_655   S
    Zr43   O48       1.47719      .   S
    N4     O48       3.50802  1_545   S
    Zr43   O49       1.84842      .   S
    N6     O49       4.31623      .   S
    Zr50   O51       1.65743      .   S
    N7     O51       3.98732      .   S
    Zr50   O52       1.84846      .   S
    N4     O52       4.31636      .   S
    Zr50   O53       1.87981      .   S
    N5     O53       4.43783      .   S
    Zr50   O54       1.47690      .   S
    N6     O54       3.50792      .   S
    Zr50   O55       1.81230      .   S
    N0     O55       4.28678  1_565   S
    Zr50   O56       1.83748      .   S
    N0     O56       4.25404  1_565   S
    Zr57   O58       1.87954  1_554   S
    N7     O58       4.43729      .   S
    Zr57   O59       1.84247      .   S
    N1     O59       4.30026      .   S
    Zr57   O60       1.47730      .   S
    N2     O60       3.50819  1_455   S
    Zr57   O61       1.83706  1_554   S
    N3     O61       4.25271  1_545   S
    Zr57   O62       1.81183  1_554   S
    N3     O62       4.28547  1_545   S
    Zr57   O63       1.65754      .   S
    N5     O63       3.98754      .   S
