# CIF file generated by openbabel 2.4.90, see http://openbabel.sf.net
data_I
_chemical_name_common ''
_cell_length_a 10.95
_cell_length_b 13.18
_cell_length_c 13.821
_cell_angle_alpha 61.782
_cell_angle_beta 71.832
_cell_angle_gamma 89.868
_space_group_name_H-M_alt 'P 1'
_space_group_name_Hall 'P 1'
loop_
    _symmetry_equiv_pos_as_xyz
    x,y,z
loop_
    _atom_site_label
    _atom_site_type_symbol
    _atom_site_fract_x
    _atom_site_fract_y
    _atom_site_fract_z
    _atom_site_occupancy
    Lv0     Lv   0.00033   0.00024   0.49952   1.000
    Lv1     Lv   0.50024   0.50006   0.49984   1.000
    Lv2     Lv   0.96552   0.03315   0.10709   1.000
    Lv3     Lv   0.03451   0.96678   0.89286   1.000
    Lv4     Lv   0.53479   0.13941   0.89169   1.000
    Lv5     Lv   0.46550   0.86058   0.10769   1.000
