# CIF file generated by openbabel 2.4.90, see http://openbabel.sf.net
data_I
_chemical_name_common ''
_cell_length_a 10.95
_cell_length_b 13.18
_cell_length_c 13.821
_cell_angle_alpha 61.782
_cell_angle_beta 71.832
_cell_angle_gamma 89.868
_space_group_name_H-M_alt 'P 1'
_space_group_name_Hall 'P 1'
loop_
    _symmetry_equiv_pos_as_xyz
    x,y,z
loop_
    _atom_site_label
    _atom_site_type_symbol
    _atom_site_fract_x
    _atom_site_fract_y
    _atom_site_fract_z
    _atom_site_occupancy
    Cd0     Cd   0.25019   0.08440   0.99869   1.000
    Cd1     Cd   0.75007   0.91560   0.00080   1.000
    S2      S    0.75095   0.97540   0.16554   1.000
    S3      S    0.74963   0.13989   0.83781   1.000
    S4      S    0.24897   0.02447   0.83418   1.000
    S5      S    0.25066   0.86013   0.16172   1.000
    Ts6     Ts   0.17423   0.07244   0.02997   1.000
    Ts7     Ts   0.32613   0.10307   0.96742   1.000
    Ts8     Ts   0.25785   0.10768   0.04131   1.000
    Ts9     Ts   0.24220   0.15018   0.95676   1.000
    Ts10    Ts   0.74250   0.89236   0.95812   1.000
    Ts11    Ts   0.75789   0.84978   0.04279   1.000
    Ts12    Ts   0.82602   0.92752   0.96965   1.000
    Ts13    Ts   0.67414   0.89693   0.03202   1.000
    Ts14    Ts   0.80354   0.98952   0.15091   1.000
    Ts15    Ts   0.69694   0.13940   0.85137   1.000
    Ts16    Ts   0.19635   0.01038   0.84891   1.000
    Ts17    Ts   0.30335   0.86061   0.14813   1.000
loop_
    _geom_bond_atom_site_label_1
    _geom_bond_atom_site_label_2
    _geom_bond_distance
    _geom_bond_site_symmetry_2
    _ccdc_geom_bond_type
    Cd1    S2        2.74145      .   S
    Cd1    S3        2.74277  1_564   S
    S5     Cd0       2.74292  1_564   S
    S4     Cd0       2.74049      .   S
    Cd0    Ts6       0.78453  1_556   S
    Cd0    Ts7       0.78427      .   S
    Cd0    Ts8       0.80633  1_556   S
    Cd0    Ts9       0.80698      .   S
    Cd1    Ts10      0.80634  1_554   S
    Cd1    Ts11      0.80700      .   S
    Cd1    Ts12      0.78421  1_554   S
    Cd1    Ts13      0.78414      .   S
    S2     Ts14      0.54728      .   S
    S3     Ts15      0.54725      .   S
    S4     Ts16      0.54730      .   S
    S5     Ts17      0.54724      .   S
