# CIF file generated by openbabel 2.4.90, see http://openbabel.sf.net
data_I
_chemical_name_common ''
_cell_length_a 10.95
_cell_length_b 13.18
_cell_length_c 13.821
_cell_angle_alpha 61.782
_cell_angle_beta 71.832
_cell_angle_gamma 89.868
_space_group_name_H-M_alt 'P 1'
_space_group_name_Hall 'P 1'
loop_
    _symmetry_equiv_pos_as_xyz
    x,y,z
loop_
    _atom_site_label
    _atom_site_type_symbol
    _atom_site_fract_x
    _atom_site_fract_y
    _atom_site_fract_z
    _atom_site_occupancy
    N0      N    0.00033   0.00024   0.49952   1.000
    N1      N    0.50024   0.50006   0.49984   1.000
    N2      N    0.96552   0.03315   0.10709   1.000
    N3      N    0.03451   0.96678   0.89286   1.000
    N4      N    0.53479   0.13941   0.89169   1.000
    N5      N    0.46550   0.86058   0.10769   1.000
    Zr6     Zr   0.75022   0.01030   0.00138   1.000
    O7      O    0.67646   0.07479   0.93815   1.000
    O8      O    0.84973   0.98021   0.96243   1.000
    O9      O    0.65053   0.94219   0.03952   1.000
    O10     O    0.69062   0.83438   0.14159   1.000
    O11     O    0.80987   0.97539   0.85977   1.000
    O12     O    0.82395   0.01258   0.06336   1.000
    Zr13    Zr   0.24994   0.98967   0.99820   1.000
    O14     O    0.34969   0.05779   0.95997   1.000
    O15     O    0.15041   0.01974   0.03727   1.000
    O16     O    0.19047   0.02472   0.13964   1.000
    O17     O    0.30958   0.16561   0.85801   1.000
    O18     O    0.17611   0.98736   0.93638   1.000
    O19     O    0.32377   0.92519   0.06135   1.000
loop_
    _geom_bond_atom_site_label_1
    _geom_bond_atom_site_label_2
    _geom_bond_distance
    _geom_bond_site_symmetry_2
    _ccdc_geom_bond_type
    Zr6    O7        1.36865  1_554   S
    N4     O7        1.90840      .   S
    Zr6    O8        1.21183  1_544   S
    N3     O8        1.99892  1_455   S
    Zr6    O9        1.21388  1_545   S
    N5     O9        2.00273      .   S
    Zr6    O10       2.12755  1_545   S
    N1     O10       4.60988      .   S
    Zr6    O11       2.12651  1_544   S
    N0     O11       4.60785  1_445   S
    Zr6    O12       1.35733      .   S
    N2     O12       1.89291      .   S
    Zr13   O14       1.21424  1_565   S
    N4     O14       2.00329      .   S
    Zr13   O15       1.21237  1_566   S
    N2     O15       2.00066  1_655   S
    Zr13   O16       2.12550  1_566   S
    N0     O16       4.60507      .   S
    Zr13   O17       2.12773  1_565   S
    N1     O17       4.61049      .   S
    Zr13   O18       1.35640      .   S
    N3     O18       1.89136      .   S
    Zr13   O19       1.36860  1_556   S
    N5     O19       1.90836      .   S
