# CIF file generated by openbabel 2.4.90, see http://openbabel.sf.net
data_I
_chemical_name_common ''
_cell_length_a 18.28
_cell_length_b 14.29
_cell_length_c 15.324
_cell_angle_alpha 89.443
_cell_angle_beta 90.195
_cell_angle_gamma 107.341
_space_group_name_H-M_alt 'P 1'
_space_group_name_Hall 'P 1'
loop_
    _symmetry_equiv_pos_as_xyz
    x,y,z
loop_
    _atom_site_label
    _atom_site_type_symbol
    _atom_site_fract_x
    _atom_site_fract_y
    _atom_site_fract_z
    _atom_site_occupancy
    Zn0     Zn   0.64612   0.33725   0.34101   1.000
    Zn1     Zn   0.08813   0.13547   0.22600   1.000
    Zn2     Zn   0.58813   0.13547   0.22600   1.000
    Zn3     Zn   0.10390   0.16078   0.84099   1.000
    Zn4     Zn   0.60391   0.16078   0.84099   1.000
    Zn5     Zn   0.16198   0.36571   0.72596   1.000
    Zn6     Zn   0.66198   0.36571   0.72596   1.000
    Zn7     Zn   0.35387   0.66275   0.65900   1.000
    Zn8     Zn   0.85387   0.66275   0.65900   1.000
    Zn9     Zn   0.41186   0.86453   0.77401   1.000
    Zn10    Zn   0.91186   0.86453   0.77401   1.000
    Zn11    Zn   0.39608   0.83922   0.15902   1.000
    Zn12    Zn   0.89608   0.83922   0.15902   1.000
    Zn13    Zn   0.33801   0.63430   0.27400   1.000
    Zn14    Zn   0.83801   0.63430   0.27400   1.000
    Zn15    Zn   0.14612   0.33725   0.34101   1.000
    C16     C    0.30005   0.43243   0.28512   1.000
    C17     C    0.80005   0.43243   0.28512   1.000
    C18     C    0.49183   0.25006   0.29751   1.000
    C19     C    0.99183   0.25006   0.29751   1.000
    C20     C    0.45003   0.06646   0.78519   1.000
    C21     C    0.95003   0.06646   0.78519   1.000
    C22     C    0.25809   0.24851   0.79742   1.000
    C23     C    0.75809   0.24851   0.79742   1.000
    C24     C    0.19994   0.56758   0.71489   1.000
    C25     C    0.69994   0.56758   0.71489   1.000
    C26     C    0.00816   0.74995   0.70250   1.000
    C27     C    0.50816   0.74995   0.70250   1.000
    C28     C    0.04996   0.93355   0.21483   1.000
    C29     C    0.54996   0.93355   0.21483   1.000
    C30     C    0.24189   0.75149   0.20260   1.000
    C31     C    0.74190   0.75149   0.20260   1.000
    O32     O    0.23539   0.44535   0.30353   1.000
    O33     O    0.73539   0.44535   0.30353   1.000
    O34     O    0.35752   0.50738   0.26663   1.000
    O35     O    0.85752   0.50738   0.26662   1.000
    O36     O    0.04228   0.33354   0.31109   1.000
    O37     O    0.54228   0.33354   0.31109   1.000
    O38     O    0.50721   0.16868   0.29188   1.000
    O39     O    0.00000   0.16868   0.29188   1.000
    O40     O    0.01470   0.05320   0.80370   1.000
    O41     O    0.51470   0.05320   0.80370   1.000
    O42     O    0.39258   0.99188   0.76665   1.000
    O43     O    0.89258   0.99188   0.76665   1.000
    O44     O    0.20769   0.16477   0.81129   1.000
    O45     O    0.70769   0.16478   0.81129   1.000
    O46     O    0.24265   0.32996   0.79166   1.000
    O47     O    0.74265   0.32996   0.79166   1.000
    O48     O    0.26460   0.55466   0.69648   1.000
    O49     O    0.76460   0.55466   0.69648   1.000
    O50     O    0.14247   0.49262   0.73339   1.000
    O51     O    0.64247   0.49262   0.73339   1.000
    O52     O    0.45771   0.66647   0.68893   1.000
    O53     O    0.95771   0.66647   0.68893   1.000
    O54     O    0.99278   0.83132   0.70814   1.000
    O55     O    0.49278   0.83132   0.70810   1.000
    O56     O    0.48529   0.94681   0.19624   1.000
    O57     O    0.98529   0.94681   0.19624   1.000
    O58     O    0.10741   0.00812   0.23336   1.000
    O59     O    0.60741   0.00812   0.23336   1.000
    O60     O    0.29230   0.83523   0.18872   1.000
    O61     O    0.79230   0.83523   0.18872   1.000
    O62     O    0.25733   0.67004   0.20835   1.000
    O63     O    0.75733   0.67004   0.20835   1.000
loop_
    _geom_bond_atom_site_label_1
    _geom_bond_atom_site_label_2
    _geom_bond_distance
    _geom_bond_site_symmetry_2
    _ccdc_geom_bond_type
    Zn12   O61       1.93663      .   S
    Zn12   O57       1.96578      .   S
    Zn11   O60       1.93661      .   S
    Zn11   O56       1.96578      .   S
    O60    C30       1.29043      .   S
    O61    C31       1.29043      .   S
    O56    C29       1.28247      .   S
    O57    C28       1.28243  1_655   S
    C31    O63       1.27892      .   S
    C30    O62       1.27892      .   S
    O62    Zn13      1.96898      .   S
    O63    Zn14      1.96898      .   S
    C29    O59       1.28685  1_565   S
    C28    O58       1.28685  1_565   S
    Zn2    O59       1.95621      .   S
    Zn2    O38       1.96739      .   S
    Zn1    O58       1.95621      .   S
    Zn1    O39       2.07749      .   S
    O35    Zn14      1.95429      .   S
    O35    C17       1.28711      .   S
    O34    Zn13      1.95429      .   S
    O34    C16       1.28709      .   S
    C16    O32       1.28215      .   S
    C17    O33       1.28218      .   S
    O38    C18       1.27900      .   S
    O39    C19       1.21969  1_455   S
    C18    O37       1.29021      .   S
    C19    O36       1.29018  1_655   S
    O33    Zn0       1.96602      .   S
    O32    Zn15      1.96603      .   S
    O37    Zn0       1.93666      .   S
    O36    Zn15      1.93666      .   S
    Zn8    O53       1.93671      .   S
    Zn8    O49       1.96602      .   S
    Zn7    O52       1.93671      .   S
    Zn7    O48       1.96602      .   S
    O53    C26       1.29016  1_655   S
    O52    C27       1.29017      .   S
    O48    C24       1.28219      .   S
    O49    C25       1.28217      .   S
    C27    O55       1.27895      .   S
    C26    O54       1.27900  1_455   S
    O55    Zn9       1.96763      .   S
    O54    Zn10      1.96728      .   S
    C24    O50       1.28712      .   S
    C25    O51       1.28712      .   S
    Zn5    O50       1.95434      .   S
    Zn5    O46       1.96933      .   S
    Zn6    O51       1.95433      .   S
    Zn6    O47       1.96935      .   S
    O42    Zn9       1.95622      .   S
    O42    C20       1.28686  1_565   S
    O43    Zn10      1.95622      .   S
    O43    C21       1.28686  1_565   S
    C21    O40       1.28217  1_655   S
    C20    O41       1.28222      .   S
    O46    C22       1.27894      .   S
    O47    C23       1.27893      .   S
    C22    O44       1.29041      .   S
    C23    O45       1.29041      .   S
    O41    Zn4       1.96609      .   S
    O40    Zn3       1.96610      .   S
    O45    Zn4       1.93664      .   S
    O44    Zn3       1.93662      .   S
