# CIF file generated by openbabel 2.4.90, see http://openbabel.sf.net
data_I
_chemical_name_common ''
_cell_length_a 18.28
_cell_length_b 14.29
_cell_length_c 15.324
_cell_angle_alpha 89.443
_cell_angle_beta 90.195
_cell_angle_gamma 107.341
_space_group_name_H-M_alt 'P 1'
_space_group_name_Hall 'P 1'
loop_
    _symmetry_equiv_pos_as_xyz
    x,y,z
loop_
    _atom_site_label
    _atom_site_type_symbol
    _atom_site_fract_x
    _atom_site_fract_y
    _atom_site_fract_z
    _atom_site_occupancy
    Zn0     Zn   0.64612   0.33725   0.34101   1.000
    Zn1     Zn   0.08813   0.13547   0.22600   1.000
    Zn2     Zn   0.58813   0.13547   0.22600   1.000
    Zn3     Zn   0.10390   0.16078   0.84099   1.000
    Zn4     Zn   0.60391   0.16078   0.84099   1.000
    Zn5     Zn   0.16198   0.36571   0.72596   1.000
    Zn6     Zn   0.66198   0.36571   0.72596   1.000
    Zn7     Zn   0.35387   0.66275   0.65900   1.000
    Zn8     Zn   0.85387   0.66275   0.65900   1.000
    Zn9     Zn   0.41186   0.86453   0.77401   1.000
    Zn10    Zn   0.91186   0.86453   0.77401   1.000
    Zn11    Zn   0.39608   0.83922   0.15902   1.000
    Zn12    Zn   0.89608   0.83922   0.15902   1.000
    Zn13    Zn   0.33801   0.63430   0.27400   1.000
    Zn14    Zn   0.83801   0.63430   0.27400   1.000
    Zn15    Zn   0.14612   0.33725   0.34101   1.000
