# CIF file generated by openbabel 2.4.90, see http://openbabel.sf.net
data_I
_chemical_name_common ''
_cell_length_a 18.28
_cell_length_b 14.29
_cell_length_c 15.324
_cell_angle_alpha 89.443
_cell_angle_beta 90.195
_cell_angle_gamma 107.341
_space_group_name_H-M_alt 'P 1'
_space_group_name_Hall 'P 1'
loop_
    _symmetry_equiv_pos_as_xyz
    x,y,z
loop_
    _atom_site_label
    _atom_site_type_symbol
    _atom_site_fract_x
    _atom_site_fract_y
    _atom_site_fract_z
    _atom_site_occupancy
    C0      C    0.30005   0.43243   0.28512   1.000
    C1      C    0.80005   0.43243   0.28512   1.000
    C2      C    0.49183   0.25006   0.29751   1.000
    C3      C    0.99183   0.25006   0.29751   1.000
    C4      C    0.45003   0.06646   0.78519   1.000
    C5      C    0.95003   0.06646   0.78519   1.000
    C6      C    0.25809   0.24851   0.79742   1.000
    C7      C    0.75809   0.24851   0.79742   1.000
    C8      C    0.19994   0.56758   0.71489   1.000
    C9      C    0.69994   0.56758   0.71489   1.000
    C10     C    0.00816   0.74995   0.70250   1.000
    C11     C    0.50816   0.74995   0.70250   1.000
    C12     C    0.04996   0.93355   0.21483   1.000
    C13     C    0.54996   0.93355   0.21483   1.000
    C14     C    0.24189   0.75149   0.20260   1.000
    C15     C    0.74190   0.75149   0.20260   1.000
