# CIF file generated by openbabel 2.4.90, see http://openbabel.sf.net
data_I
_chemical_name_common ''
_cell_length_a 18.28
_cell_length_b 14.29
_cell_length_c 15.324
_cell_angle_alpha 89.443
_cell_angle_beta 90.195
_cell_angle_gamma 107.341
_space_group_name_H-M_alt 'P 1'
_space_group_name_Hall 'P 1'
loop_
    _symmetry_equiv_pos_as_xyz
    x,y,z
loop_
    _atom_site_label
    _atom_site_type_symbol
    _atom_site_fract_x
    _atom_site_fract_y
    _atom_site_fract_z
    _atom_site_occupancy
    Zr0     Zr   0.14612   0.33725   0.34101   1.000
    Zr1     Zr   0.64612   0.33725   0.34101   1.000
    Zr2     Zr   0.08813   0.13547   0.22600   1.000
    Zr3     Zr   0.58813   0.13547   0.22600   1.000
    Zr4     Zr   0.10390   0.16078   0.84099   1.000
    Zr5     Zr   0.60391   0.16078   0.84099   1.000
    Zr6     Zr   0.16198   0.36571   0.72596   1.000
    Zr7     Zr   0.66198   0.36571   0.72596   1.000
    Zr8     Zr   0.35387   0.66275   0.65900   1.000
    Zr9     Zr   0.85387   0.66275   0.65900   1.000
    Zr10    Zr   0.41186   0.86453   0.77401   1.000
    Zr11    Zr   0.91186   0.86453   0.77401   1.000
    Zr12    Zr   0.39608   0.83922   0.15902   1.000
    Zr13    Zr   0.89608   0.83922   0.15902   1.000
    Zr14    Zr   0.33801   0.63430   0.27400   1.000
    Zr15    Zr   0.83801   0.63430   0.27400   1.000
    Zr16    Zr   0.30005   0.43243   0.28512   1.000
    Zr17    Zr   0.80005   0.43243   0.28512   1.000
    Zr18    Zr   0.49183   0.25006   0.29751   1.000
    Zr19    Zr   0.99183   0.25006   0.29751   1.000
    Zr20    Zr   0.45003   0.06646   0.78519   1.000
    Zr21    Zr   0.95003   0.06646   0.78519   1.000
    Zr22    Zr   0.25809   0.24851   0.79742   1.000
    Zr23    Zr   0.75809   0.24851   0.79742   1.000
    Zr24    Zr   0.19994   0.56758   0.71489   1.000
    Zr25    Zr   0.69994   0.56758   0.71489   1.000
    Zr26    Zr   0.00816   0.74995   0.70250   1.000
    Zr27    Zr   0.50816   0.74995   0.70250   1.000
    Zr28    Zr   0.04996   0.93355   0.21483   1.000
    Zr29    Zr   0.54996   0.93355   0.21483   1.000
    Zr30    Zr   0.24189   0.75149   0.20260   1.000
    Zr31    Zr   0.74190   0.75149   0.20260   1.000
    Zr32    Zr   0.23539   0.44535   0.30353   1.000
    Zr33    Zr   0.73539   0.44535   0.30353   1.000
    Zr34    Zr   0.35752   0.50738   0.26663   1.000
    Zr35    Zr   0.85752   0.50738   0.26662   1.000
    Zr36    Zr   0.04228   0.33354   0.31109   1.000
    Zr37    Zr   0.54228   0.33354   0.31109   1.000
    Zr38    Zr   0.50721   0.16868   0.29188   1.000
    Zr39    Zr   0.00000   0.16868   0.29188   1.000
    Zr40    Zr   0.01470   0.05320   0.80370   1.000
    Zr41    Zr   0.51470   0.05320   0.80370   1.000
    Zr42    Zr   0.39258   0.99188   0.76665   1.000
    Zr43    Zr   0.89258   0.99188   0.76665   1.000
    Zr44    Zr   0.20769   0.16477   0.81129   1.000
    Zr45    Zr   0.70769   0.16478   0.81129   1.000
    Zr46    Zr   0.24265   0.32996   0.79166   1.000
    Zr47    Zr   0.74265   0.32996   0.79166   1.000
    Zr48    Zr   0.26460   0.55466   0.69648   1.000
    Zr49    Zr   0.76460   0.55466   0.69648   1.000
    Zr50    Zr   0.14247   0.49262   0.73339   1.000
    Zr51    Zr   0.64247   0.49262   0.73339   1.000
    Zr52    Zr   0.45771   0.66647   0.68893   1.000
    Zr53    Zr   0.95771   0.66647   0.68893   1.000
    Zr54    Zr   0.99278   0.83132   0.70814   1.000
    Zr55    Zr   0.49278   0.83132   0.70810   1.000
    Zr56    Zr   0.48529   0.94681   0.19624   1.000
    Zr57    Zr   0.98529   0.94681   0.19624   1.000
    Zr58    Zr   0.10741   0.00812   0.23336   1.000
    Zr59    Zr   0.60741   0.00812   0.23336   1.000
    Zr60    Zr   0.29230   0.83523   0.18872   1.000
    Zr61    Zr   0.79230   0.83523   0.18872   1.000
    Zr62    Zr   0.25733   0.67004   0.20835   1.000
    Zr63    Zr   0.75733   0.67004   0.20835   1.000
    O64     O    0.84419   0.83722   0.17387   1.000
    O65     O    0.94069   0.89301   0.17763   1.000
    O66     O    0.34419   0.83723   0.17387   1.000
    O67     O    0.44068   0.89301   0.17763   1.000
    O68     O    0.26710   0.79336   0.19566   1.000
    O69     O    0.76710   0.79336   0.19566   1.000
    O70     O    0.51762   0.94018   0.20553   1.000
    O71     O    0.01762   0.94018   0.20553   1.000
    O72     O    0.74961   0.71076   0.20548   1.000
    O73     O    0.24961   0.71076   0.20548   1.000
    O74     O    0.29767   0.65217   0.24118   1.000
    O75     O    0.79767   0.65217   0.24118   1.000
    O76     O    0.57868   0.97083   0.22410   1.000
    O77     O    0.07868   0.97083   0.22410   1.000
    O78     O    0.59777   0.07180   0.22968   1.000
    O79     O    0.54767   0.15208   0.25894   1.000
    O80     O    0.09777   0.07180   0.22968   1.000
    O81     O    0.04407   0.15208   0.25894   1.000
    O82     O    0.84777   0.57084   0.27031   1.000
    O83     O    0.82879   0.46991   0.27587   1.000
    O84     O    0.34777   0.57084   0.27031   1.000
    O85     O    0.32878   0.46991   0.27588   1.000
    O86     O    0.26772   0.43889   0.29433   1.000
    O87     O    0.76772   0.43889   0.29433   1.000
    O88     O    0.49952   0.20937   0.29470   1.000
    O89     O    0.99591   0.20937   0.29470   1.000
    O90     O    0.51706   0.29180   0.30430   1.000
    O91     O    0.01706   0.29180   0.30430   1.000
    O92     O    0.69076   0.39130   0.32227   1.000
    O93     O    0.19076   0.39130   0.32227   1.000
    O94     O    0.59420   0.33540   0.32605   1.000
    O95     O    0.09420   0.33540   0.32605   1.000
    O96     O    0.90579   0.66461   0.67397   1.000
    O97     O    0.80923   0.60870   0.67774   1.000
    O98     O    0.40579   0.66461   0.67397   1.000
    O99     O    0.30923   0.60870   0.67774   1.000
    O100    O    0.98294   0.70821   0.69571   1.000
    O101    O    0.48294   0.70821   0.69571   1.000
    O102    O    0.23227   0.56112   0.70568   1.000
    O103    O    0.73227   0.56112   0.70568   1.000
    O104    O    0.50047   0.79063   0.70530   1.000
    O105    O    0.00047   0.79063   0.70532   1.000
    O106    O    0.45232   0.84793   0.74105   1.000
    O107    O    0.95232   0.84793   0.74107   1.000
    O108    O    0.17120   0.53010   0.72414   1.000
    O109    O    0.67121   0.53010   0.72414   1.000
    O110    O    0.15222   0.42917   0.72968   1.000
    O111    O    0.20232   0.34783   0.75881   1.000
    O112    O    0.65222   0.42917   0.72968   1.000
    O113    O    0.70232   0.34783   0.75881   1.000
    O114    O    0.40222   0.92821   0.77033   1.000
    O115    O    0.42130   0.02917   0.77592   1.000
    O116    O    0.90222   0.92821   0.77033   1.000
    O117    O    0.92130   0.02917   0.77592   1.000
    O118    O    0.98236   0.05983   0.79444   1.000
    O119    O    0.48236   0.05983   0.79444   1.000
    O120    O    0.25037   0.28924   0.79454   1.000
    O121    O    0.75037   0.28924   0.79454   1.000
    O122    O    0.23289   0.20664   0.80435   1.000
    O123    O    0.73289   0.20665   0.80435   1.000
    O124    O    0.55930   0.10699   0.82234   1.000
    O125    O    0.05930   0.10699   0.82234   1.000
    O126    O    0.65580   0.16278   0.82614   1.000
    O127    O    0.15580   0.16278   0.82614   1.000
    N128    N    0.59477   0.15457   0.03546   1.000
    O129    O    0.59448   0.16482   0.96866   1.000
    O130    O    0.58830   0.15663   0.10096   1.000
    N131    N    0.15480   0.34498   0.53478   1.000
    O132    O    0.16160   0.34392   0.60074   1.000
    O133    O    0.15528   0.33402   0.46850   1.000
    N134    N    0.57163   0.73099   0.21847   1.000
    O135    O    0.49255   0.76013   0.20558   1.000
    O136    O    0.47804   0.70890   0.23432   1.000
    O137    O    0.56434   0.80802   0.21673   1.000
    O138    O    0.63652   0.74076   0.21249   1.000
    N139    N    0.42836   0.26902   0.78153   1.000
    O140    O    0.43565   0.19199   0.78328   1.000
    O141    O    0.52195   0.29111   0.76567   1.000
    O142    O    0.50743   0.23988   0.79443   1.000
    O143    O    0.36347   0.25924   0.78752   1.000
    N144    N    0.84518   0.65502   0.46523   1.000
    O145    O    0.84471   0.66598   0.53151   1.000
    O146    O    0.83838   0.65609   0.39926   1.000
    N147    N    0.40521   0.84543   0.96454   1.000
    O148    O    0.40550   0.83518   0.03135   1.000
    O149    O    0.41169   0.84337   0.89904   1.000
    N150    N    0.34518   0.65502   0.46523   1.000
    O151    O    0.33838   0.65609   0.39926   1.000
    O152    O    0.34471   0.66598   0.53151   1.000
    N153    N    0.32162   0.22993   0.28180   1.000
    O154    O    0.24257   0.25893   0.29468   1.000
    O155    O    0.22808   0.20848   0.26592   1.000
    O156    O    0.38648   0.23956   0.28772   1.000
    O157    O    0.31437   0.30694   0.28341   1.000
    N158    N    0.07110   0.73099   0.21847   1.000
    O159    O    0.06407   0.80802   0.21673   1.000
    O160    O    0.99229   0.76013   0.20558   1.000
    O161    O    0.97777   0.70890   0.23432   1.000
    O162    O    0.13625   0.74076   0.21249   1.000
    N163    N    0.92836   0.26902   0.78154   1.000
    O164    O    0.86347   0.25924   0.78752   1.000
    O165    O    0.93565   0.19199   0.78328   1.000
    O166    O    0.02195   0.29111   0.76567   1.000
    O167    O    0.00743   0.23988   0.79443   1.000
    N168    N    0.17837   0.77007   0.71820   1.000
    O169    O    0.11351   0.76044   0.71229   1.000
    O170    O    0.18562   0.69307   0.71660   1.000
    O171    O    0.27191   0.79152   0.73408   1.000
    O172    O    0.25742   0.74108   0.70533   1.000
    N173    N    0.82162   0.22993   0.28180   1.000
    O174    O    0.72808   0.20848   0.26592   1.000
    O175    O    0.74258   0.25893   0.29468   1.000
    O176    O    0.81437   0.30694   0.28341   1.000
    O177    O    0.88648   0.23956   0.28772   1.000
    N178    N    0.65480   0.34497   0.53478   1.000
    O179    O    0.65528   0.33402   0.46850   1.000
    O180    O    0.66160   0.34391   0.60074   1.000
    N181    N    0.09476   0.15456   0.03546   1.000
    O182    O    0.09448   0.16482   0.96866   1.000
    O183    O    0.08830   0.15662   0.10096   1.000
    N184    N    0.90520   0.84542   0.96455   1.000
    O185    O    0.90550   0.83517   0.03135   1.000
    O186    O    0.91168   0.84337   0.89905   1.000
    N187    N    0.67837   0.77007   0.71821   1.000
    O188    O    0.68562   0.69307   0.71660   1.000
    O189    O    0.61351   0.76044   0.71229   1.000
    O190    O    0.77191   0.79152   0.73408   1.000
    O191    O    0.75742   0.74108   0.70533   1.000
loop_
    _geom_bond_atom_site_label_1
    _geom_bond_atom_site_label_2
    _geom_bond_distance
    _geom_bond_site_symmetry_2
    _ccdc_geom_bond_type
    Zr13   O64       0.96832      .   S
    Zr61   O64       0.96832      .   S
    Zr13   O65       0.98289      .   S
    Zr57   O65       0.98289      .   S
    Zr12   O66       0.96831      .   S
    Zr60   O66       0.96831      .   S
    Zr12   O67       0.98289      .   S
    Zr56   O67       0.98289      .   S
    Zr60   O68       0.64522      .   S
    Zr30   O68       0.64522      .   S
    Zr61   O69       0.64522      .   S
    Zr31   O69       0.64522      .   S
    Zr56   O70       0.64123      .   S
    Zr29   O70       0.64123      .   S
    Zr57   O71       0.64122  1_655   S
    Zr28   O71       0.64122      .   S
    Zr31   O72       0.63946      .   S
    Zr63   O72       0.63946      .   S
    Zr30   O73       0.63946      .   S
    Zr62   O73       0.63946      .   S
    Zr62   O74       0.98449      .   S
    Zr14   O74       0.98449      .   S
    Zr63   O75       0.98449      .   S
    Zr15   O75       0.98449      .   S
    Zr29   O76       0.64342      .   S
    Zr59   O76       0.64342  1_545   S
    Zr28   O77       0.64342      .   S
    Zr58   O77       0.64342  1_545   S
    Zr3    O78       0.97811      .   S
    Zr59   O78       0.97811      .   S
    Zr3    O79       0.98370      .   S
    Zr38   O79       0.98370      .   S
    Zr2    O80       0.97811      .   S
    Zr58   O80       0.97811      .   S
    Zr2    O81       1.03875      .   S
    Zr39   O81       1.03875      .   S
    Zr35   O82       0.97714      .   S
    Zr15   O82       0.97714      .   S
    Zr35   O83       0.64356      .   S
    Zr17   O83       0.64356      .   S
    Zr34   O84       0.97714      .   S
    Zr14   O84       0.97714      .   S
    Zr34   O85       0.64355      .   S
    Zr16   O85       0.64355      .   S
    Zr16   O86       0.64107      .   S
    Zr32   O86       0.64107      .   S
    Zr17   O87       0.64109      .   S
    Zr33   O87       0.64109      .   S
    Zr38   O88       0.63950      .   S
    Zr18   O88       0.63950      .   S
    Zr39   O89       0.60984  1_455   S
    Zr19   O89       0.60984      .   S
    Zr18   O90       0.64510      .   S
    Zr37   O90       0.64510      .   S
    Zr19   O91       0.64509  1_655   S
    Zr36   O91       0.64509      .   S
    Zr33   O92       0.98301      .   S
    Zr1    O92       0.98301      .   S
    Zr32   O93       0.98302      .   S
    Zr0    O93       0.98302      .   S
    Zr37   O94       0.96833      .   S
    Zr1    O94       0.96833      .   S
    Zr36   O95       0.96833      .   S
    Zr0    O95       0.96833      .   S
    Zr9    O96       0.96835      .   S
    Zr53   O96       0.96835      .   S
    Zr9    O97       0.98301      .   S
    Zr49   O97       0.98301      .   S
    Zr8    O98       0.96835      .   S
    Zr52   O98       0.96835      .   S
    Zr8    O99       0.98301      .   S
    Zr48   O99       0.98301      .   S
    Zr53   O100      0.64508      .   S
    Zr26   O100      0.64508  1_455   S
    Zr52   O101      0.64509      .   S
    Zr27   O101      0.64509      .   S
    Zr48   O102      0.64110      .   S
    Zr24   O102      0.64110      .   S
    Zr49   O103      0.64109      .   S
    Zr25   O103      0.64109      .   S
    Zr27   O104      0.63948      .   S
    Zr55   O104      0.63948      .   S
    Zr26   O105      0.63950      .   S
    Zr54   O105      0.63950  1_655   S
    Zr55   O106      0.98381      .   S
    Zr10   O106      0.98381      .   S
    Zr54   O107      0.98364      .   S
    Zr11   O107      0.98364      .   S
    Zr24   O108      0.64356      .   S
    Zr50   O108      0.64356      .   S
    Zr25   O109      0.64356      .   S
    Zr51   O109      0.64356      .   S
    Zr6    O110      0.97717      .   S
    Zr50   O110      0.97717      .   S
    Zr6    O111      0.98467      .   S
    Zr46   O111      0.98467      .   S
    Zr7    O112      0.97717      .   S
    Zr51   O112      0.97717      .   S
    Zr7    O113      0.98467      .   S
    Zr47   O113      0.98467      .   S
    Zr42   O114      0.97811      .   S
    Zr10   O114      0.97811      .   S
    Zr42   O115      0.64343  1_565   S
    Zr20   O115      0.64343      .   S
    Zr43   O116      0.97811      .   S
    Zr11   O116      0.97811      .   S
    Zr43   O117      0.64343  1_565   S
    Zr21   O117      0.64343      .   S
    Zr21   O118      0.64109      .   S
    Zr40   O118      0.64109  1_455   S
    Zr20   O119      0.64111      .   S
    Zr41   O119      0.64111      .   S
    Zr46   O120      0.63947      .   S
    Zr22   O120      0.63947      .   S
    Zr47   O121      0.63947      .   S
    Zr23   O121      0.63947      .   S
    Zr22   O122      0.64520      .   S
    Zr44   O122      0.64520      .   S
    Zr23   O123      0.64520      .   S
    Zr45   O123      0.64520      .   S
    Zr41   O124      0.98305      .   S
    Zr5    O124      0.98305      .   S
    Zr40   O125      0.98305      .   S
    Zr4    O125      0.98305      .   S
    Zr45   O126      0.96832      .   S
    Zr5    O126      0.96832      .   S
    Zr44   O127      0.96831      .   S
    Zr4    O127      0.96831      .   S
    N128   O129      1.03298  1_554   S
    Zr5    O129      1.96742      .   S
    N128   O130      1.01283      .   S
    Zr3    O130      1.93672      .   S
    N131   O132      1.01847      .   S
    Zr6    O132      1.94660      .   S
    N131   O133      1.02969      .   S
    Zr0    O133      1.96150      .   S
    N134   O135      1.63006      .   S
    Zr12   O135      2.46181      .   S
    N134   O136      1.66285      .   S
    Zr14   O136      2.53564      .   S
    N134   O137      1.14761      .   S
    Zr29   O137      1.88884      .   S
    N134   O138      1.15614      .   S
    Zr31   O138      1.89281      .   S
    N139   O140      1.14761      .   S
    Zr20   O140      1.88885      .   S
    N139   O141      1.66289      .   S
    Zr7    O141      2.53580      .   S
    N139   O142      1.63006      .   S
    Zr5    O142      2.46181      .   S
    N139   O143      1.15615      .   S
    Zr22   O143      1.89283      .   S
    N144   O145      1.02968      .   S
    Zr9    O145      1.96148      .   S
    N144   O146      1.01867      .   S
    Zr15   O146      1.94718      .   S
    N147   O148      1.03303  1_556   S
    Zr12   O148      1.96748      .   S
    N147   O149      1.01278      .   S
    Zr10   O149      1.93667      .   S
    N150   O151      1.01868      .   S
    Zr14   O151      1.94718      .   S
    N150   O152      1.02967      .   S
    Zr8    O152      1.96148      .   S
    N153   O154      1.63057      .   S
    Zr0    O154      2.46291      .   S
    N153   O155      1.66228      .   S
    Zr2    O155      2.53338      .   S
    N153   O156      1.15560      .   S
    Zr18   O156      1.89198      .   S
    N153   O157      1.14738      .   S
    Zr16   O157      1.88836      .   S
    N158   O159      1.14567      .   S
    Zr28   O159      1.88681      .   S
    N158   O160      1.62538  1_455   S
    Zr13   O160      2.45766      .   S
    N158   O161      1.65813  1_455   S
    Zr15   O161      2.53136      .   S
    N158   O162      1.16092      .   S
    Zr30   O162      1.89762      .   S
    N163   O164      1.15614      .   S
    Zr23   O164      1.89282      .   S
    N163   O165      1.14761      .   S
    Zr21   O165      1.88885      .   S
    N163   O166      1.66286  1_655   S
    Zr6    O166      2.53579      .   S
    N163   O167      1.63004  1_655   S
    Zr4    O167      2.46180      .   S
    N168   O169      1.15559      .   S
    Zr26   O169      1.89198      .   S
    N168   O170      1.14738      .   S
    Zr24   O170      1.88835      .   S
    N168   O171      1.66229      .   S
    Zr10   O171      2.53340      .   S
    N168   O172      1.63057      .   S
    Zr8    O172      2.46289      .   S
    N173   O174      1.66228      .   S
    Zr3    O174      2.53339      .   S
    N173   O175      1.63058      .   S
    Zr1    O175      2.46291      .   S
    N173   O176      1.14738      .   S
    Zr17   O176      1.88835      .   S
    N173   O177      1.15560      .   S
    Zr19   O177      1.89199      .   S
    N178   O179      1.02969      .   S
    Zr1    O179      1.96149      .   S
    N178   O180      1.01847      .   S
    Zr7    O180      1.94660      .   S
    N181   O182      1.03299  1_554   S
    Zr4    O182      1.96743      .   S
    N181   O183      1.01282      .   S
    Zr2    O183      1.93672      .   S
    N184   O185      1.03297  1_556   S
    Zr13   O185      1.96742      .   S
    N184   O186      1.01284      .   S
    Zr11   O186      1.93673      .   S
    N187   O188      1.14738      .   S
    Zr25   O188      1.88836      .   S
    N187   O189      1.15560      .   S
    Zr27   O189      1.89199      .   S
    N187   O190      1.66227      .   S
    Zr11   O190      2.53338      .   S
    N187   O191      1.63057      .   S
    Zr9    O191      2.46290      .   S
