# CIF file generated by openbabel 2.4.90, see http://openbabel.sf.net
data_I
_chemical_name_common ''
_cell_length_a 11.272
_cell_length_b 24.217
_cell_length_c 23.214
_cell_angle_alpha 98.079
_cell_angle_beta 90.007
_cell_angle_gamma 89.999
_space_group_name_H-M_alt 'P 1'
_space_group_name_Hall 'P 1'
loop_
    _symmetry_equiv_pos_as_xyz
    x,y,z
loop_
    _atom_site_label
    _atom_site_type_symbol
    _atom_site_fract_x
    _atom_site_fract_y
    _atom_site_fract_z
    _atom_site_occupancy
    N0      N    0.82687   0.76088   0.65857   1.000
    N1      N    0.82687   0.26089   0.65858   1.000
    N2      N    0.17295   0.23912   0.34138   1.000
    N3      N    0.17296   0.73911   0.34139   1.000
    N4      N    0.67295   0.23912   0.34138   1.000
    N5      N    0.67296   0.73911   0.34138   1.000
    N6      N    0.57706   0.98913   0.84138   1.000
    N7      N    0.07705   0.48913   0.84138   1.000
    N8      N    0.07705   0.98913   0.84137   1.000
    N9      N    0.57706   0.48913   0.84138   1.000
    N10     N    0.32704   0.26089   0.65858   1.000
    N11     N    0.32705   0.76088   0.65858   1.000
    N12     N    0.42294   0.51088   0.15855   1.000
    N13     N    0.92294   0.01087   0.15857   1.000
    N14     N    0.92294   0.51088   0.15855   1.000
    N15     N    0.42294   0.01087   0.15857   1.000
    Zr16    Zr   0.10402   0.69701   0.95458   1.000
    O17     O    0.03793   0.65132   0.01434   1.000
    O18     O    0.09209   0.78244   0.92887   1.000
    O19     O    0.09521   0.63221   0.92290   1.000
    O20     O    0.20136   0.64812   0.01434   1.000
    O21     O    0.17997   0.71325   0.87317   1.000
    O22     O    0.01723   0.71268   0.87125   1.000
    Zr23    Zr   0.60401   0.19701   0.95458   1.000
    O24     O    0.70136   0.14812   0.01435   1.000
    O25     O    0.67992   0.21325   0.87317   1.000
    O26     O    0.53793   0.15133   0.01434   1.000
    O27     O    0.59521   0.13222   0.92290   1.000
    O28     O    0.51727   0.21268   0.87125   1.000
    O29     O    0.59209   0.28244   0.92887   1.000
    Zr30    Zr   0.10401   0.19701   0.95458   1.000
    O31     O    0.03793   0.15133   0.01434   1.000
    O32     O    0.17997   0.21325   0.87317   1.000
    O33     O    0.09520   0.13222   0.92290   1.000
    O34     O    0.01722   0.21268   0.87125   1.000
    O35     O    0.20136   0.14812   0.01435   1.000
    O36     O    0.09208   0.28244   0.92887   1.000
    Zr37    Zr   0.39598   0.80299   0.04540   1.000
    O38     O    0.29864   0.85188   0.98562   1.000
    O39     O    0.40479   0.86779   0.07707   1.000
    O40     O    0.48273   0.78732   0.12872   1.000
    O41     O    0.46207   0.84868   0.98563   1.000
    O42     O    0.40791   0.71756   0.07110   1.000
    O43     O    0.32003   0.78675   0.12681   1.000
    Zr44    Zr   0.14597   0.94699   0.45459   1.000
    O45     O    0.21206   0.90132   0.51435   1.000
    O46     O    0.23272   0.96267   0.37126   1.000
    O47     O    0.07002   0.96324   0.37317   1.000
    O48     O    0.15479   0.88220   0.42291   1.000
    O49     O    0.15791   0.03242   0.42888   1.000
    O50     O    0.04795   0.89811   0.51435   1.000
    Zr51    Zr   0.14597   0.44700   0.45459   1.000
    O52     O    0.21206   0.40132   0.51435   1.000
    O53     O    0.04795   0.39811   0.51436   1.000
    O54     O    0.23271   0.46267   0.37125   1.000
    O55     O    0.15791   0.53242   0.42888   1.000
    O56     O    0.15479   0.38220   0.42291   1.000
    O57     O    0.07002   0.46324   0.37317   1.000
    Zr58    Zr   0.89598   0.80299   0.04540   1.000
    O59     O    0.90791   0.71756   0.07110   1.000
    O60     O    0.90479   0.86779   0.07707   1.000
    O61     O    0.82003   0.78675   0.12681   1.000
    O62     O    0.79864   0.85188   0.98562   1.000
    O63     O    0.98273   0.78732   0.12872   1.000
    O64     O    0.96207   0.84868   0.98563   1.000
    Zr65    Zr   0.85402   0.05301   0.54538   1.000
    O66     O    0.92998   0.03676   0.62679   1.000
    O67     O    0.84516   0.11780   0.57706   1.000
    O68     O    0.76728   0.03733   0.62870   1.000
    O69     O    0.78794   0.09868   0.48558   1.000
    O70     O    0.95137   0.10189   0.48561   1.000
    O71     O    0.84205   0.96758   0.57109   1.000
    Zr72    Zr   0.35402   0.55300   0.54538   1.000
    O73     O    0.26728   0.53733   0.62870   1.000
    O74     O    0.34209   0.46757   0.57109   1.000
    O75     O    0.45137   0.60189   0.48561   1.000
    O76     O    0.28794   0.59868   0.48562   1.000
    O77     O    0.34521   0.61780   0.57706   1.000
    O78     O    0.42998   0.53676   0.62679   1.000
    Zr79    Zr   0.39598   0.30299   0.04540   1.000
    O80     O    0.40791   0.21757   0.07110   1.000
    O81     O    0.48273   0.28732   0.12872   1.000
    O82     O    0.40479   0.36779   0.07706   1.000
    O83     O    0.29863   0.35188   0.98562   1.000
    O84     O    0.32003   0.28675   0.12681   1.000
    O85     O    0.46207   0.34868   0.98563   1.000
    Zr86    Zr   0.89598   0.30299   0.04540   1.000
    O87     O    0.96206   0.34868   0.98563   1.000
    O88     O    0.90791   0.21757   0.07110   1.000
    O89     O    0.82003   0.28675   0.12681   1.000
    O90     O    0.98273   0.28732   0.12872   1.000
    O91     O    0.90479   0.36779   0.07707   1.000
    O92     O    0.79864   0.35188   0.98562   1.000
    Zr93    Zr   0.35402   0.05301   0.54538   1.000
    O94     O    0.34209   0.96758   0.57109   1.000
    O95     O    0.26728   0.03733   0.62870   1.000
    O96     O    0.34520   0.11780   0.57706   1.000
    O97     O    0.42998   0.03676   0.62678   1.000
    O98     O    0.28794   0.09868   0.48562   1.000
    O99     O    0.45137   0.10189   0.48561   1.000
    Zr100   Zr   0.85403   0.55300   0.54538   1.000
    O101    O    0.95137   0.60189   0.48561   1.000
    O102    O    0.92998   0.53676   0.62679   1.000
    O103    O    0.84205   0.46758   0.57109   1.000
    O104    O    0.78794   0.59868   0.48562   1.000
    O105    O    0.76728   0.53733   0.62870   1.000
    O106    O    0.84516   0.61780   0.57706   1.000
    Zr107   Zr   0.60402   0.69701   0.95458   1.000
    O108    O    0.59209   0.78244   0.92887   1.000
    O109    O    0.53793   0.65132   0.01433   1.000
    O110    O    0.51727   0.71268   0.87125   1.000
    O111    O    0.70136   0.64812   0.01434   1.000
    O112    O    0.59521   0.63221   0.92290   1.000
    O113    O    0.67993   0.71325   0.87316   1.000
    Zr114   Zr   0.64597   0.94699   0.45459   1.000
    O115    O    0.54863   0.89811   0.51436   1.000
    O116    O    0.65791   0.03242   0.42884   1.000
    O117    O    0.73272   0.96267   0.37126   1.000
    O118    O    0.57002   0.96324   0.37317   1.000
    O119    O    0.65479   0.88220   0.42290   1.000
    O120    O    0.71202   0.90132   0.51435   1.000
    Zr121   Zr   0.64597   0.44700   0.45459   1.000
    O122    O    0.71201   0.40132   0.51435   1.000
    O123    O    0.65791   0.53242   0.42888   1.000
    O124    O    0.57002   0.46324   0.37317   1.000
    O125    O    0.54863   0.39811   0.51436   1.000
    O126    O    0.65479   0.38220   0.42291   1.000
    O127    O    0.73271   0.46267   0.37126   1.000
loop_
    _geom_bond_atom_site_label_1
    _geom_bond_atom_site_label_2
    _geom_bond_distance
    _geom_bond_site_symmetry_2
    _ccdc_geom_bond_type
    Zr16   O17       2.03341  1_556   S
    N14    O17       5.25918  1_655   S
    Zr16   O18       2.23637      .   S
    N8     O18       5.66263      .   S
    Zr16   O19       1.63966      .   S
    N7     O19       3.71316      .   S
    Zr16   O20       2.23424  1_556   S
    N12    O20       5.62278      .   S
    Zr16   O21       2.16078      .   S
    N11    O21       5.52371      .   S
    Zr16   O22       2.24692      .   S
    N0     O22       5.65330  1_655   S
    Zr23   O24       2.23433  1_556   S
    N13    O24       5.62305      .   S
    Zr23   O25       2.16058      .   S
    N1     O25       5.52326      .   S
    Zr23   O26       2.03348  1_556   S
    N15    O26       5.25939      .   S
    Zr23   O27       1.63967      .   S
    N6     O27       3.71318  1_565   S
    Zr23   O28       2.24670      .   S
    N10    O28       5.65269      .   S
    Zr23   O29       2.23635      .   S
    N9     O29       5.66254      .   S
    Zr30   O31       2.03348  1_556   S
    N13    O31       5.25938  1_655   S
    Zr30   O32       2.16079      .   S
    N10    O32       5.52374      .   S
    Zr30   O33       1.63967      .   S
    N8     O33       3.71320  1_565   S
    Zr30   O34       2.24690      .   S
    N1     O34       5.65322  1_655   S
    Zr30   O35       2.23433  1_556   S
    N15    O35       5.62306      .   S
    Zr30   O36       2.23635      .   S
    N7     O36       5.66255      .   S
    Zr37   O38       2.23457  1_554   S
    N8     O38       5.62345      .   S
    Zr37   O39       1.63958      .   S
    N15    O39       3.71293  1_545   S
    Zr37   O40       2.24656      .   S
    N5     O40       5.65240      .   S
    Zr37   O41       2.03366  1_554   S
    N6     O41       5.25983      .   S
    Zr37   O42       2.23622      .   S
    N12    O42       5.66213      .   S
    Zr37   O43       2.16066      .   S
    N3     O43       5.52344      .   S
    Zr44   O45       2.03318      .   S
    N11    O45       5.25885      .   S
    Zr44   O46       2.24698      .   S
    N15    O46       5.65345  1_545   S
    Zr44   O47       2.16070      .   S
    N13    O47       5.52370  1_645   S
    Zr44   O48       1.63966      .   S
    N3     O48       3.71316      .   S
    Zr44   O49       2.23647  1_565   S
    N2     O49       5.66274      .   S
    Zr44   O50       2.23809      .   S
    N0     O50       5.62065  1_655   S
    Zr51   O52       2.03317      .   S
    N10    O52       5.25881      .   S
    Zr51   O53       2.23811      .   S
    N1     O53       5.62072  1_655   S
    Zr51   O54       2.24707      .   S
    N12    O54       5.65374      .   S
    Zr51   O55       2.23640      .   S
    N3     O55       5.66262      .   S
    Zr51   O56       1.63965      .   S
    N2     O56       3.71316      .   S
    Zr51   O57       2.16076      .   S
    N14    O57       5.52391  1_655   S
    Zr58   O59       2.23623      .   S
    N14    O59       5.66218      .   S
    Zr58   O60       1.63958      .   S
    N13    O60       3.71294  1_545   S
    Zr58   O61       2.16065      .   S
    N5     O61       5.52340      .   S
    Zr58   O62       2.23447  1_554   S
    N6     O62       5.62347      .   S
    Zr58   O63       2.24657      .   S
    N3     O63       5.65243  1_455   S
    Zr58   O64       2.03365  1_554   S
    N8     O64       5.25981  1_455   S
    Zr65   O66       2.16056      .   S
    N8     O66       5.52320  1_465   S
    Zr65   O67       1.63968      .   S
    N1     O67       3.71319      .   S
    Zr65   O68       2.24683      .   S
    N6     O68       5.65301  1_565   S
    Zr65   O69       2.03390      .   S
    N4     O69       5.25846      .   S
    Zr65   O70       2.23439      .   S
    N2     O70       5.62340  1_455   S
    Zr65   O71       2.23646  1_545   S
    N0     O71       5.66264      .   S
    Zr72   O73       2.24685      .   S
    N7     O73       5.65307      .   S
    Zr72   O74       2.23637      .   S
    N10    O74       5.66251      .   S
    Zr72   O75       2.23439      .   S
    N5     O75       5.62340      .   S
    Zr72   O76       2.03322      .   S
    N3     O76       5.25894      .   S
    Zr72   O77       1.63965      .   S
    N11    O77       3.71310      .   S
    Zr72   O78       2.16059      .   S
    N9     O78       5.52327      .   S
    Zr79   O80       2.23628      .   S
    N15    O80       5.66235      .   S
    Zr79   O81       2.24652      .   S
    N4     O81       5.65226      .   S
    Zr79   O82       1.63954      .   S
    N12    O82       3.71280      .   S
    Zr79   O83       2.23448  1_554   S
    N7     O83       5.62342      .   S
    Zr79   O84       2.16064      .   S
    N2     O84       5.52339      .   S
    Zr79   O85       2.03364  1_554   S
    N9     O85       5.25975      .   S
    Zr86   O87       2.03363  1_554   S
    N7     O87       5.25973  1_455   S
    Zr86   O88       2.23628      .   S
    N13    O88       5.66235      .   S
    Zr86   O89       2.16061      .   S
    N4     O89       5.52328      .   S
    Zr86   O90       2.24655      .   S
    N2     O90       5.65236  1_455   S
    Zr86   O91       1.63955      .   S
    N14    O91       3.71283      .   S
    Zr86   O92       2.23446  1_554   S
    N9     O92       5.62337      .   S
    Zr93   O94       2.23644  1_545   S
    N11    O94       5.66264      .   S
    Zr93   O95       2.24684      .   S
    N8     O95       5.65304  1_565   S
    Zr93   O96       1.63965      .   S
    N10    O96       3.71310      .   S
    Zr93   O97       2.16035      .   S
    N6     O97       5.52349  1_565   S
    Zr93   O98       2.03323      .   S
    N2     O98       5.25899      .   S
    Zr93   O99       2.23442      .   S
    N4     O99       5.62347      .   S
    Zr100  O101      2.23437      .   S
    N3     O101      5.62336  1_455   S
    Zr100  O102      2.16057      .   S
    N7     O102      5.52323  1_455   S
    Zr100  O103      2.23641      .   S
    N1     O103      5.66259      .   S
    Zr100  O104      2.03322      .   S
    N5     O104      5.25896      .   S
    Zr100  O105      2.24685      .   S
    N9     O105      5.65305      .   S
    Zr100  O106      1.63966      .   S
    N0     O106      3.71313      .   S
    Zr107  O108      2.23637      .   S
    N6     O108      5.66263      .   S
    Zr107  O109      2.03339  1_556   S
    N12    O109      5.25911      .   S
    Zr107  O110      2.24668      .   S
    N11    O110      5.65266      .   S
    Zr107  O111      2.23426  1_556   S
    N14    O111      5.62285      .   S
    Zr107  O112      1.63966      .   S
    N9     O112      3.71315      .   S
    Zr107  O113      2.16061      .   S
    N0     O113      5.52335      .   S
    Zr114  O115      2.23434      .   S
    N11    O115      5.62324      .   S
    Zr114  O116      2.23681  1_565   S
    N4     O116      5.66239      .   S
    Zr114  O117      2.24698      .   S
    N13    O117      5.65345  1_545   S
    Zr114  O118      2.16070      .   S
    N15    O118      5.52371  1_545   S
    Zr114  O119      1.63974      .   S
    N5     O119      3.71309      .   S
    Zr114  O120      2.03298      .   S
    N0     O120      5.25842      .   S
    Zr121  O122      2.03300      .   S
    N1     O122      5.25847      .   S
    Zr121  O123      2.23641      .   S
    N5     O123      5.66263      .   S
    Zr121  O124      2.16079      .   S
    N12    O124      5.52400      .   S
    Zr121  O125      2.23433      .   S
    N10    O125      5.62323      .   S
    Zr121  O126      1.63967      .   S
    N4     O126      3.71321      .   S
    Zr121  O127      2.24705      .   S
    N14    O127      5.65366      .   S
