# CIF file generated by openbabel 2.4.90, see http://openbabel.sf.net
data_I
_chemical_name_common ''
_cell_length_a 18.077
_cell_length_b 18.099
_cell_length_c 19.129
_cell_angle_alpha 89.93
_cell_angle_beta 90.006
_cell_angle_gamma 120.048
_space_group_name_H-M_alt 'P 1'
_space_group_name_Hall 'P 1'
loop_
    _symmetry_equiv_pos_as_xyz
    x,y,z
loop_
    _atom_site_label
    _atom_site_type_symbol
    _atom_site_fract_x
    _atom_site_fract_y
    _atom_site_fract_z
    _atom_site_occupancy
    H0      H    0.79293   0.13540   0.43298   1.000
    H1      H    0.92507   0.20425   0.50540   1.000
    H2      H    0.98153   0.45624   0.43950   1.000
    H3      H    0.85603   0.46069   0.99395   1.000
    H4      H    0.08988   0.65599   0.08975   1.000
    H5      H    0.02383   0.61951   0.20808   1.000
    H6      H    0.34222   0.20680   0.43316   1.000
    H7      H    0.27874   0.07453   0.50552   1.000
    H8      H    0.47425   0.01811   0.43934   1.000
    H9      H    0.60334   0.14350   0.99388   1.000
    H10     H    0.56512   0.90996   0.08989   1.000
    H11     H    0.59471   0.97578   0.20818   1.000
    H12     H    0.86439   0.65665   0.43355   1.000
    H13     H    0.79573   0.72034   0.50554   1.000
    H14     H    0.54337   0.52598   0.43878   1.000
    H15     H    0.53868   0.39539   0.99390   1.000
    H16     H    0.34422   0.43500   0.08995   1.000
    H17     H    0.38063   0.40543   0.20827   1.000
    H18     H    0.65862   0.86481   0.56684   1.000
    H19     H    0.72157   0.79581   0.49446   1.000
    H20     H    0.52484   0.54392   0.56002   1.000
    H21     H    0.39566   0.53951   0.00000   1.000
    H22     H    0.43401   0.34442   0.91017   1.000
    H23     H    0.40476   0.38106   0.79180   1.000
    H24     H    0.13535   0.79185   0.56639   1.000
    H25     H    0.20395   0.92436   0.49426   1.000
    H26     H    0.45636   0.98252   0.56115   1.000
    H27     H    0.45997   0.85651   0.00000   1.000
    H28     H    0.65558   0.09043   0.91020   1.000
    H29     H    0.61998   0.02453   0.79198   1.000
    H30     H    0.20713   0.34305   0.56710   1.000
    H31     H    0.07484   0.27944   0.49479   1.000
    H32     H    0.01748   0.47410   0.56090   1.000
    H33     H    0.14357   0.60509   0.00000   1.000
    H34     H    0.90931   0.56490   0.90989   1.000
    H35     H    0.97533   0.59405   0.79157   1.000
    C36     C    0.83387   0.20453   0.43447   1.000
    C37     C    0.90771   0.24365   0.47412   1.000
    C38     C    0.96129   0.33436   0.47763   1.000
    C39     C    0.94071   0.38706   0.43925   1.000
    C40     C    0.89256   0.49639   0.03951   1.000
    C41     C    0.97784   0.56067   0.03429   1.000
    C42     C    0.02399   0.60453   0.09577   1.000
    C43     C    0.98805   0.58537   0.16175   1.000
    C44     C    0.37033   0.16581   0.43455   1.000
    C45     C    0.33553   0.09193   0.47416   1.000
    C46     C    0.37263   0.03835   0.47756   1.000
    C47     C    0.44598   0.05898   0.43917   1.000
    C48     C    0.60262   0.10702   0.03948   1.000
    C49     C    0.58167   0.02188   0.03430   1.000
    C50     C    0.57943   0.97570   0.09587   1.000
    C51     C    0.59623   0.01155   0.16182   1.000
    C52     C    0.79522   0.62884   0.43472   1.000
    C53     C    0.75622   0.66378   0.47412   1.000
    C54     C    0.66545   0.62712   0.47722   1.000
    C55     C    0.61258   0.55396   0.43882   1.000
    C56     C    0.50316   0.39647   0.03951   1.000
    C57     C    0.43914   0.41775   0.03436   1.000
    C58     C    0.39549   0.42036   0.09591   1.000
    C59     C    0.41461   0.40354   0.16180   1.000
    C60     C    0.63009   0.79566   0.56533   1.000
    C61     C    0.66461   0.75645   0.52568   1.000
    C62     C    0.62711   0.66573   0.52210   1.000
    C63     C    0.55351   0.61311   0.56030   1.000
    C64     C    0.39650   0.50388   0.96043   1.000
    C65     C    0.41739   0.43964   0.96564   1.000
    C66     C    0.41972   0.39588   0.90415   1.000
    C67     C    0.40309   0.41513   0.83816   1.000
    C68     C    0.20451   0.83328   0.56518   1.000
    C69     C    0.24348   0.90728   0.52572   1.000
    C70     C    0.33424   0.96140   0.52260   1.000
    C71     C    0.38716   0.94124   0.56115   1.000
    C72     C    0.49590   0.89308   0.96047   1.000
    C73     C    0.56007   0.97832   0.96567   1.000
    C74     C    0.60423   0.02457   0.90422   1.000
    C75     C    0.58554   0.98866   0.83828   1.000
    C76     C    0.16593   0.37095   0.56570   1.000
    C77     C    0.09202   0.33606   0.52613   1.000
    C78     C    0.03815   0.37286   0.52270   1.000
    C79     C    0.05855   0.44603   0.56107   1.000
    C80     C    0.10694   0.60384   0.96052   1.000
    C81     C    0.02155   0.58244   0.96559   1.000
    C82     C    0.97527   0.57956   0.90390   1.000
    C83     C    0.01118   0.59613   0.83801   1.000
loop_
    _geom_bond_atom_site_label_1
    _geom_bond_atom_site_label_2
    _geom_bond_distance
    _geom_bond_site_symmetry_2
    _ccdc_geom_bond_type
    H33    C80       0.99703  1_554   S
    H27    C72       1.00008  1_554   S
    H21    C64       0.99995  1_554   S
    C41    C40       1.39413      .   S
    C41    C42       1.43115  1_655   S
    C41    C81       1.48110  1_654   S
    C49    C48       1.39422      .   S
    C49    C50       1.43208  1_545   S
    C49    C73       1.48044  1_544   S
    C57    C56       1.39414      .   S
    C57    C58       1.43130      .   S
    C57    C65       1.48132  1_554   S
    C48    H9        1.08947  1_554   S
    C56    H15       1.08933  1_554   S
    C40    H3        1.08954  1_554   S
    H4     C42       1.08992      .   S
    H10    C50       1.08993      .   S
    H16    C58       1.08993      .   S
    C42    C43       1.38165  1_455   S
    C50    C51       1.38178  1_565   S
    C58    C59       1.38021      .   S
    C43    H5        1.08934  1_655   S
    C59    H17       1.09075      .   S
    C51    H11       1.08962  1_545   S
    H0     C36       1.08944      .   S
    H6     C44       1.08954      .   S
    H12    C52       1.08944      .   S
    C36    C37       1.38308      .   S
    C44    C45       1.38305      .   S
    C52    C53       1.38299      .   S
    H14    C55       1.08946      .   S
    C55    C54       1.39322      .   S
    C47    H8        1.08953      .   S
    C47    C46       1.39300      .   S
    C39    H2        1.08945      .   S
    C39    C38       1.39322      .   S
    C37    C38       1.43028      .   S
    C37    H1        1.09011      .   S
    C53    C54       1.43022      .   S
    C53    H13       1.09024      .   S
    C45    C46       1.43031      .   S
    C45    H7        1.09030      .   S
    C54    C62       1.48080      .   S
    C46    C70       1.48078  1_545   S
    C38    C78       1.48020  1_655   S
    H25    C69       1.09035      .   S
    H19    C61       1.09028      .   S
    H31    C77       1.09022      .   S
    C62    C61       1.43030      .   S
    C62    C63       1.39307      .   S
    C70    C69       1.43019      .   S
    C70    C71       1.39318      .   S
    C78    C77       1.43035      .   S
    C78    C79       1.39341      .   S
    C61    C60       1.38324      .   S
    C69    C68       1.38291      .   S
    C77    C76       1.38295      .   S
    H20    C63       1.08944      .   S
    H32    C79       1.08954      .   S
    H26    C71       1.08946      .   S
    C68    H24       1.08945      .   S
    C60    H18       1.08944      .   S
    C76    H30       1.08952      .   S
    H35    C83       1.08918  1_655   S
    H23    C67       1.08976      .   S
    H29    C75       1.08962  1_545   S
    C83    C82       1.37999  1_455   S
    C67    C66       1.38167      .   S
    C75    C74       1.38185  1_565   S
    C82    H34       1.09009      .   S
    C82    C81       1.43230  1_655   S
    C66    H22       1.08992      .   S
    C66    C65       1.43127      .   S
    C74    H28       1.08981      .   S
    C74    C73       1.43123  1_545   S
    C64    C65       1.39413      .   S
    C72    C73       1.39407      .   S
    C80    C81       1.39416      .   S
