# CIF file generated by openbabel 2.4.90, see http://openbabel.sf.net
data_I
_chemical_name_common ''
_cell_length_a 18.077
_cell_length_b 18.099
_cell_length_c 19.129
_cell_angle_alpha 89.93
_cell_angle_beta 90.006
_cell_angle_gamma 120.048
_space_group_name_H-M_alt 'P 1'
_space_group_name_Hall 'P 1'
loop_
    _symmetry_equiv_pos_as_xyz
    x,y,z
loop_
    _atom_site_label
    _atom_site_type_symbol
    _atom_site_fract_x
    _atom_site_fract_y
    _atom_site_fract_z
    _atom_site_occupancy
    N0      N    0.57888   0.00011   0.99959   1.000
    N1      N    0.42050   0.42096   0.99958   1.000
    N2      N    0.99980   0.32771   0.50012   1.000
    N3      N    0.32748   0.99975   0.49999   1.000
    N4      N    0.99967   0.57923   0.99947   1.000
    N5      N    0.67238   0.67230   0.49982   1.000
    Zr6     Zr   0.66629   0.33322   0.26578   1.000
    Zr7     Zr   0.33341   0.66686   0.73418   1.000
    O8      O    0.63003   0.18911   0.16243   1.000
    O9      O    0.55835   0.36954   0.16243   1.000
    O10     O    0.79893   0.32340   0.36224   1.000
    O11     O    0.52395   0.20063   0.36221   1.000
    O12     O    0.81047   0.44127   0.16240   1.000
    O13     O    0.67629   0.47564   0.36216   1.000
    O14     O    0.44127   0.81102   0.83734   1.000
    O15     O    0.36950   0.55892   0.83732   1.000
    O16     O    0.20069   0.52438   0.63784   1.000
    O17     O    0.32347   0.79922   0.63777   1.000
    O18     O    0.18906   0.63054   0.83729   1.000
    O19     O    0.47585   0.67670   0.63763   1.000
loop_
    _geom_bond_atom_site_label_1
    _geom_bond_atom_site_label_2
    _geom_bond_distance
    _geom_bond_site_symmetry_2
    _ccdc_geom_bond_type
    Zr6    O8        3.07258      .   S
    N0     O8        4.37244  1_556   S
    Zr6    O9        3.07054      .   S
    N1     O9        4.36964  1_556   S
    Zr6    O10       3.10022      .   S
    N2     O10       4.45668      .   S
    Zr6    O11       3.09654      .   S
    N3     O11       4.45275  1_565   S
    Zr6    O12       3.06837      .   S
    N4     O12       4.36769  1_556   S
    Zr6    O13       3.10175      .   S
    N5     O13       4.45906      .   S
    N0     O14       4.36252  1_545   S
    Zr7    O14       3.06931      .   S
    N1     O15       4.35947      .   S
    Zr7    O15       3.06623      .   S
    Zr7    O16       3.10105      .   S
    N2     O16       4.45802  1_655   S
    Zr7    O17       3.09704      .   S
    N3     O17       4.45380      .   S
    Zr7    O18       3.06786      .   S
    N4     O18       4.36110  1_655   S
    Zr7    O19       3.10057      .   S
    N5     O19       4.45685      .   S
