# CIF file generated by openbabel 2.4.90, see http://openbabel.sf.net
data_I
_chemical_name_common ''
_cell_length_a 18.077
_cell_length_b 18.099
_cell_length_c 19.129
_cell_angle_alpha 89.93
_cell_angle_beta 90.006
_cell_angle_gamma 120.048
_space_group_name_H-M_alt 'P 1'
_space_group_name_Hall 'P 1'
loop_
    _symmetry_equiv_pos_as_xyz
    x,y,z
loop_
    _atom_site_label
    _atom_site_type_symbol
    _atom_site_fract_x
    _atom_site_fract_y
    _atom_site_fract_z
    _atom_site_occupancy
    N0      N    0.57888   0.00011   0.99959   1.000
    N1      N    0.42050   0.42096   0.99958   1.000
    N2      N    0.99980   0.32771   0.50012   1.000
    N3      N    0.32748   0.99975   0.49999   1.000
    N4      N    0.99967   0.57923   0.99947   1.000
    N5      N    0.67238   0.67230   0.49982   1.000
    Zr6     Zr   0.66629   0.33322   0.26578   1.000
    O7      O    0.65926   0.46868   0.36255   1.000
    O8      O    0.51693   0.21062   0.36177   1.000
    O9      O    0.80892   0.34041   0.36269   1.000
    O10     O    0.80157   0.43300   0.15099   1.000
    O11     O    0.62940   0.18022   0.17385   1.000
    O12     O    0.78894   0.30638   0.36179   1.000
    O13     O    0.69332   0.48259   0.36177   1.000
    O14     O    0.63065   0.19801   0.15101   1.000
    O15     O    0.53098   0.19065   0.36265   1.000
    O16     O    0.81936   0.44953   0.17381   1.000
    O17     O    0.56657   0.36886   0.15101   1.000
    O18     O    0.55012   0.37022   0.17385   1.000
    Zr19    Zr   0.33341   0.66686   0.73418   1.000
    O20     O    0.18014   0.62980   0.82586   1.000
    O21     O    0.37014   0.55068   0.82590   1.000
    O22     O    0.43294   0.80211   0.84875   1.000
    O23     O    0.34049   0.80931   0.63739   1.000
    O24     O    0.19066   0.53135   0.63741   1.000
    O25     O    0.44960   0.81992   0.82593   1.000
    O26     O    0.36885   0.56716   0.84873   1.000
    O27     O    0.21073   0.51741   0.63828   1.000
    O28     O    0.30644   0.78912   0.63815   1.000
    O29     O    0.19798   0.63129   0.84873   1.000
    O30     O    0.48296   0.69372   0.63811   1.000
    O31     O    0.46874   0.65969   0.63716   1.000
loop_
    _geom_bond_atom_site_label_1
    _geom_bond_atom_site_label_2
    _geom_bond_distance
    _geom_bond_site_symmetry_2
    _ccdc_geom_bond_type
    Zr6    O7        3.12681      .   S
    N5     O7        4.43630      .   S
    Zr6    O8        3.09467      .   S
    N3     O8        4.49150  1_565   S
    Zr6    O9        3.12497      .   S
    N2     O9        4.43407      .   S
    Zr6    O10       3.10357      .   S
    N4     O10       4.32669  1_556   S
    Zr6    O11       3.06064      .   S
    N0     O11       4.42914  1_556   S
    Zr6    O12       3.09854      .   S
    N2     O12       4.49520      .   S
    Zr6    O13       3.09976      .   S
    N5     O13       4.49770      .   S
    Zr6    O14       3.10769      .   S
    N0     O14       4.33162  1_556   S
    Zr6    O15       3.12152      .   S
    N3     O15       4.42992  1_565   S
    Zr6    O16       3.05636      .   S
    N4     O16       4.42458  1_556   S
    Zr6    O17       3.10568      .   S
    N1     O17       4.32872  1_556   S
    Zr6    O18       3.05857      .   S
    N1     O18       4.42644  1_556   S
    Zr19   O20       3.05592      .   S
    N4     O20       4.41759  1_655   S
    Zr19   O21       3.05457      .   S
    N1     O21       4.41579      .   S
    Zr19   O22       3.10397      .   S
    N0     O22       4.32235  1_545   S
    Zr19   O23       3.12225      .   S
    N3     O23       4.43087      .   S
    Zr19   O24       3.12614      .   S
    N2     O24       4.43522  1_655   S
    Zr19   O25       3.05785      .   S
    N0     O25       4.41862  1_545   S
    Zr19   O26       3.10111      .   S
    N1     O26       4.31909      .   S
    Zr19   O27       3.09902      .   S
    N2     O27       4.49671  1_655   S
    Zr19   O28       3.09493      .   S
    N3     O28       4.49265      .   S
    Zr19   O29       3.10300      .   S
    N4     O29       4.32053  1_655   S
    Zr19   O30       3.09914      .   S
    N5     O30       4.49522      .   S
    Zr19   O31       3.12507      .   S
    N5     O31       4.43438      .   S
