# CIF file generated by openbabel 2.4.90, see http://openbabel.sf.net
data_I
_chemical_name_common ''
_cell_length_a 18.077
_cell_length_b 18.099
_cell_length_c 19.129
_cell_angle_alpha 89.93
_cell_angle_beta 90.006
_cell_angle_gamma 120.048
_space_group_name_H-M_alt 'P 1'
_space_group_name_Hall 'P 1'
loop_
    _symmetry_equiv_pos_as_xyz
    x,y,z
loop_
    _atom_site_label
    _atom_site_type_symbol
    _atom_site_fract_x
    _atom_site_fract_y
    _atom_site_fract_z
    _atom_site_occupancy
    Zr0     Zr   0.87488   0.51091   0.33033   1.000
    Zr1     Zr   0.63580   0.12466   0.33008   1.000
    Zr2     Zr   0.48849   0.36409   0.33019   1.000
    Zr3     Zr   0.36416   0.48940   0.66975   1.000
    Zr4     Zr   0.51163   0.87560   0.66969   1.000
    Zr5     Zr   0.12459   0.63594   0.66987   1.000
    Zr6     Zr   0.66628   0.33318   0.26410   1.000
    Zr7     Zr   0.66601   0.33311   0.06940   1.000
    Zr8     Zr   0.33354   0.66694   0.73581   1.000
    Zr9     Zr   0.33328   0.66665   0.93058   1.000
    Zr10    Zr   0.86593   0.34794   0.39893   1.000
    Zr11    Zr   0.81290   0.25820   0.39653   1.000
    Zr12    Zr   0.90236   0.51953   0.16671   1.000
    Zr13    Zr   0.85554   0.47629   0.10634   1.000
    Zr14    Zr   0.48173   0.13381   0.39891   1.000
    Zr15    Zr   0.44499   0.18679   0.39654   1.000
    Zr16    Zr   0.61604   0.09710   0.16670   1.000
    Zr17    Zr   0.61966   0.14395   0.10629   1.000
    Zr18    Zr   0.65158   0.51800   0.39883   1.000
    Zr19    Zr   0.74139   0.55443   0.39667   1.000
    Zr20    Zr   0.48019   0.38340   0.16678   1.000
    Zr21    Zr   0.52325   0.37959   0.10630   1.000
    Zr22    Zr   0.51803   0.65232   0.60060   1.000
    Zr23    Zr   0.55521   0.74208   0.60321   1.000
    Zr24    Zr   0.38336   0.48092   0.83320   1.000
    Zr25    Zr   0.37970   0.52404   0.89357   1.000
    Zr26    Zr   0.34820   0.86629   0.60128   1.000
    Zr27    Zr   0.25840   0.81276   0.60331   1.000
    Zr28    Zr   0.51984   0.90300   0.83332   1.000
    Zr29    Zr   0.47625   0.85615   0.89366   1.000
    Zr30    Zr   0.13346   0.48192   0.60124   1.000
    Zr31    Zr   0.18667   0.44542   0.60360   1.000
    Zr32    Zr   0.09698   0.61635   0.83320   1.000
    Zr33    Zr   0.14396   0.62056   0.89368   1.000
    Zr34    Zr   0.74583   0.24142   0.35366   1.000
    Zr35    Zr   0.75713   0.31660   0.33100   1.000
    Zr36    Zr   0.82907   0.38180   0.35711   1.000
    Zr37    Zr   0.84909   0.48407   0.22266   1.000
    Zr38    Zr   0.77387   0.42232   0.19805   1.000
    Zr39    Zr   0.77568   0.41612   0.12829   1.000
    Zr40    Zr   0.49526   0.25382   0.35361   1.000
    Zr41    Zr   0.55922   0.24260   0.33105   1.000
    Zr42    Zr   0.55256   0.17075   0.35716   1.000
    Zr43    Zr   0.63394   0.15027   0.22261   1.000
    Zr44    Zr   0.64763   0.22551   0.19794   1.000
    Zr45    Zr   0.63961   0.22376   0.12817   1.000
    Zr46    Zr   0.75807   0.50414   0.35388   1.000
    Zr47    Zr   0.68277   0.44037   0.33123   1.000
    Zr48    Zr   0.61757   0.44724   0.35716   1.000
    Zr49    Zr   0.51554   0.36549   0.22270   1.000
    Zr50    Zr   0.57710   0.35176   0.19805   1.000
    Zr51    Zr   0.58323   0.35970   0.12820   1.000
    Zr52    Zr   0.50509   0.75892   0.64619   1.000
    Zr53    Zr   0.44082   0.68371   0.66862   1.000
    Zr54    Zr   0.44714   0.61847   0.64232   1.000
    Zr55    Zr   0.36561   0.51637   0.77724   1.000
    Zr56    Zr   0.35210   0.57800   0.80180   1.000
    Zr57    Zr   0.36005   0.58413   0.87160   1.000
    Zr58    Zr   0.24173   0.74568   0.64609   1.000
    Zr59    Zr   0.31702   0.75741   0.66899   1.000
    Zr60    Zr   0.38222   0.82965   0.64318   1.000
    Zr61    Zr   0.48474   0.84978   0.77740   1.000
    Zr62    Zr   0.42290   0.77457   0.80200   1.000
    Zr63    Zr   0.41630   0.77635   0.87173   1.000
    Zr64    Zr   0.25370   0.49573   0.64647   1.000
    Zr65    Zr   0.24234   0.55955   0.66894   1.000
    Zr66    Zr   0.17035   0.55270   0.64286   1.000
    Zr67    Zr   0.15028   0.63410   0.77729   1.000
    Zr68    Zr   0.22570   0.64819   0.80201   1.000
    Zr69    Zr   0.22394   0.64061   0.87183   1.000
    O70     O    0.65281   0.27843   0.09879   1.000
    O71     O    0.62462   0.34641   0.09880   1.000
    O72     O    0.72085   0.37462   0.09885   1.000
    O73     O    0.62964   0.18386   0.11723   1.000
    O74     O    0.61785   0.12053   0.13649   1.000
    O75     O    0.55324   0.36965   0.11725   1.000
    O76     O    0.50172   0.38150   0.13654   1.000
    O77     O    0.81561   0.44621   0.11732   1.000
    O78     O    0.87895   0.49791   0.13653   1.000
    O79     O    0.64362   0.22464   0.16306   1.000
    O80     O    0.58016   0.35573   0.16313   1.000
    O81     O    0.77477   0.41922   0.16317   1.000
    O82     O    0.62499   0.12369   0.19466   1.000
    O83     O    0.87573   0.50180   0.19469   1.000
    O84     O    0.49786   0.37444   0.19474   1.000
    O85     O    0.64079   0.18789   0.21028   1.000
    O86     O    0.65696   0.27935   0.23102   1.000
    O87     O    0.81148   0.45320   0.21036   1.000
    O88     O    0.72008   0.37775   0.23108   1.000
    O89     O    0.54632   0.35862   0.21038   1.000
    O90     O    0.62169   0.34247   0.23108   1.000
    O91     O    0.63487   0.13747   0.27635   1.000
    O92     O    0.86198   0.49749   0.27649   1.000
    O93     O    0.50202   0.36479   0.27644   1.000
    O94     O    0.71170   0.32489   0.29755   1.000
    O95     O    0.61275   0.28789   0.29758   1.000
    O96     O    0.67453   0.38677   0.29767   1.000
    O97     O    0.69082   0.18304   0.34187   1.000
    O98     O    0.59418   0.14771   0.34362   1.000
    O99     O    0.49187   0.30896   0.34190   1.000
    O100    O    0.55303   0.40567   0.34368   1.000
    O101    O    0.81647   0.50753   0.34211   1.000
    O102    O    0.85197   0.44636   0.34372   1.000
    O103    O    0.75148   0.27901   0.34233   1.000
    O104    O    0.79310   0.34920   0.34406   1.000
    O105    O    0.52724   0.24821   0.34233   1.000
    O106    O    0.55589   0.20667   0.34411   1.000
    O107    O    0.72042   0.47226   0.34256   1.000
    O108    O    0.65017   0.44381   0.34420   1.000
    O109    O    0.47012   0.22031   0.37507   1.000
    O110    O    0.77936   0.24981   0.37510   1.000
    O111    O    0.74973   0.52929   0.37528   1.000
    O112    O    0.84750   0.36487   0.37802   1.000
    O113    O    0.63458   0.48262   0.37800   1.000
    O114    O    0.51714   0.15228   0.37804   1.000
    O115    O    0.83941   0.30307   0.39773   1.000
    O116    O    0.46336   0.16030   0.39773   1.000
    O117    O    0.69648   0.53622   0.39775   1.000
    O118    O    0.53662   0.69720   0.60191   1.000
    O119    O    0.48258   0.63540   0.62146   1.000
    O120    O    0.16007   0.46367   0.60242   1.000
    O121    O    0.15190   0.51731   0.62205   1.000
    O122    O    0.30330   0.83952   0.60230   1.000
    O123    O    0.36521   0.84797   0.62223   1.000
    O124    O    0.53015   0.75050   0.62470   1.000
    O125    O    0.25006   0.77922   0.62470   1.000
    O126    O    0.22019   0.47057   0.62504   1.000
    O127    O    0.44398   0.65109   0.65547   1.000
    O128    O    0.40565   0.55394   0.65604   1.000
    O129    O    0.20635   0.55613   0.65590   1.000
    O130    O    0.14747   0.59432   0.65637   1.000
    O131    O    0.34962   0.79353   0.65609   1.000
    O132    O    0.44692   0.85262   0.65644   1.000
    O133    O    0.27937   0.75155   0.65754   1.000
    O134    O    0.18316   0.69081   0.65798   1.000
    O135    O    0.47295   0.72132   0.65741   1.000
    O136    O    0.50836   0.81726   0.65794   1.000
    O137    O    0.24802   0.52764   0.65771   1.000
    O138    O    0.30893   0.49257   0.65811   1.000
    O139    O    0.38718   0.67533   0.70222   1.000
    O140    O    0.28794   0.61325   0.70237   1.000
    O141    O    0.32528   0.71217   0.70240   1.000
    O142    O    0.49819   0.86269   0.72355   1.000
    O143    O    0.36488   0.50288   0.72350   1.000
    O144    O    0.13743   0.63502   0.72358   1.000
    O145    O    0.34282   0.62247   0.76881   1.000
    O146    O    0.37822   0.72075   0.76891   1.000
    O147    O    0.27962   0.65757   0.76891   1.000
    O148    O    0.35885   0.54718   0.78952   1.000
    O149    O    0.37448   0.49865   0.80522   1.000
    O150    O    0.18799   0.64115   0.78965   1.000
    O151    O    0.12363   0.62523   0.80525   1.000
    O152    O    0.45382   0.81218   0.78970   1.000
    O153    O    0.50229   0.87639   0.80536   1.000
    O154    O    0.35607   0.58106   0.83670   1.000
    O155    O    0.41960   0.77546   0.83687   1.000
    O156    O    0.22482   0.64440   0.83692   1.000
    O157    O    0.38153   0.50248   0.86339   1.000
    O158    O    0.12047   0.61845   0.86344   1.000
    O159    O    0.49805   0.87958   0.86349   1.000
    O160    O    0.36987   0.55408   0.88259   1.000
    O161    O    0.34666   0.62539   0.90109   1.000
    O162    O    0.44627   0.81625   0.88270   1.000
    O163    O    0.37479   0.72150   0.90116   1.000
    O164    O    0.18395   0.63059   0.88276   1.000
    O165    O    0.27861   0.65363   0.90121   1.000
    N166    N    0.57888   0.00011   0.99959   1.000
    O167    O    0.56579   0.97297   0.91769   1.000
    O168    O    0.53248   0.93736   0.96333   1.000
    O169    O    0.59251   0.02722   0.08192   1.000
    O170    O    0.59501   0.06280   0.03624   1.000
    N171    N    0.42050   0.42096   0.99958   1.000
    O172    O    0.43395   0.40722   0.08193   1.000
    O173    O    0.40430   0.46746   0.96329   1.000
    O174    O    0.40686   0.43449   0.91763   1.000
    O175    O    0.46685   0.40450   0.03624   1.000
    N176    N    0.99980   0.32771   0.50012   1.000
    O177    O    0.04790   0.39584   0.54064   1.000
    O178    O    0.95156   0.34761   0.45961   1.000
    O179    O    0.08805   0.36795   0.54239   1.000
    O180    O    0.91159   0.27954   0.45781   1.000
    N181    N    0.32748   0.99975   0.49999   1.000
    O182    O    0.39567   0.04807   0.45952   1.000
    O183    O    0.36757   0.08802   0.45777   1.000
    O184    O    0.27947   0.91138   0.54212   1.000
    O185    O    0.34758   0.95175   0.54060   1.000
    N186    N    0.99967   0.57923   0.99947   1.000
    O187    O    0.02688   0.59273   0.91754   1.000
    O188    O    0.06256   0.59571   0.96329   1.000
    O189    O    0.93686   0.53278   0.03620   1.000
    O190    O    0.97244   0.56584   0.08185   1.000
    N191    N    0.67238   0.67230   0.49982   1.000
    O192    O    0.72034   0.63197   0.45776   1.000
    O193    O    0.60407   0.65251   0.54014   1.000
    O194    O    0.63251   0.72058   0.54205   1.000
    O195    O    0.65223   0.60414   0.45932   1.000
loop_
    _geom_bond_atom_site_label_1
    _geom_bond_atom_site_label_2
    _geom_bond_distance
    _geom_bond_site_symmetry_2
    _ccdc_geom_bond_type
    Zr7    O70       1.05564      .   S
    Zr45   O70       1.05564      .   S
    Zr7    O71       1.05584      .   S
    Zr51   O71       1.05584      .   S
    Zr7    O72       1.05799      .   S
    Zr39   O72       1.05799      .   S
    Zr17   O73       0.68398      .   S
    Zr45   O73       0.68398      .   S
    Zr17   O74       0.70722      .   S
    Zr16   O74       0.70722      .   S
    Zr21   O75       0.68393      .   S
    Zr51   O75       0.68393      .   S
    Zr21   O76       0.70770      .   S
    Zr20   O76       0.70770      .   S
    Zr13   O77       0.68386      .   S
    Zr39   O77       0.68386      .   S
    Zr13   O78       0.70732      .   S
    Zr12   O78       0.70732      .   S
    Zr45   O79       0.67058      .   S
    Zr44   O79       0.67058      .   S
    Zr51   O80       0.67117      .   S
    Zr50   O80       0.67117      .   S
    Zr39   O81       0.67053      .   S
    Zr38   O81       0.67053      .   S
    Zr16   O82       0.68284      .   S
    Zr43   O82       0.68284      .   S
    Zr12   O83       0.68270      .   S
    Zr37   O83       0.68270      .   S
    Zr20   O84       0.68270      .   S
    Zr49   O84       0.68270      .   S
    Zr44   O85       0.67075      .   S
    Zr43   O85       0.67075      .   S
    Zr44   O86       1.10229      .   S
    Zr6    O86       1.10229      .   S
    Zr38   O87       0.67062      .   S
    Zr37   O87       0.67062      .   S
    Zr38   O88       1.09943      .   S
    Zr6    O88       1.09943      .   S
    Zr50   O89       0.67075      .   S
    Zr49   O89       0.67075      .   S
    Zr50   O90       1.10116      .   S
    Zr6    O90       1.10116      .   S
    Zr43   O91       1.05539      .   S
    Zr1    O91       1.05539      .   S
    Zr37   O92       1.05721      .   S
    Zr0    O92       1.05721      .   S
    Zr49   O93       1.05538      .   S
    Zr2    O93       1.05538      .   S
    Zr6    O94       1.10863      .   S
    Zr35   O94       1.10863      .   S
    Zr6    O95       1.10581      .   S
    Zr41   O95       1.10581      .   S
    Zr6    O96       1.11006      .   S
    Zr47   O96       1.11006      .   S
    Zr1    O97       1.05096      .   S
    Zr34   O97       1.05096      .   S
    Zr1    O98       1.05903      .   S
    Zr42   O98       1.05903      .   S
    Zr2    O99       1.05369      .   S
    Zr40   O99       1.05369      .   S
    Zr2    O100      1.05602      .   S
    Zr48   O100      1.05602      .   S
    Zr0    O101      1.05086      .   S
    Zr46   O101      1.05086      .   S
    Zr0    O102      1.05683      .   S
    Zr36   O102      1.05683      .   S
    Zr35   O103      0.67112      .   S
    Zr34   O103      0.67112      .   S
    Zr35   O104      0.67039      .   S
    Zr36   O104      0.67039      .   S
    Zr41   O105      0.67086      .   S
    Zr40   O105      0.67086      .   S
    Zr41   O106      0.67016      .   S
    Zr42   O106      0.67016      .   S
    Zr47   O107      0.67094      .   S
    Zr46   O107      0.67094      .   S
    Zr47   O108      0.67036      .   S
    Zr48   O108      0.67036      .   S
    Zr40   O109      0.68296      .   S
    Zr15   O109      0.68296      .   S
    Zr34   O110      0.68305      .   S
    Zr11   O110      0.68305      .   S
    Zr46   O111      0.68307      .   S
    Zr19   O111      0.68307      .   S
    Zr36   O112      0.68321      .   S
    Zr10   O112      0.68321      .   S
    Zr48   O113      0.68325      .   S
    Zr18   O113      0.68325      .   S
    Zr42   O114      0.68302      .   S
    Zr14   O114      0.68302      .   S
    Zr11   O115      0.70713      .   S
    Zr10   O115      0.70713      .   S
    Zr15   O116      0.70716      .   S
    Zr14   O116      0.70716      .   S
    Zr19   O117      0.70710      .   S
    Zr18   O117      0.70710      .   S
    Zr22   O118      0.70717      .   S
    Zr23   O118      0.70717      .   S
    Zr22   O119      0.68322      .   S
    Zr54   O119      0.68322      .   S
    Zr30   O120      0.70707      .   S
    Zr31   O120      0.70707      .   S
    Zr30   O121      0.68312      .   S
    Zr66   O121      0.68312      .   S
    Zr26   O122      0.70713      .   S
    Zr27   O122      0.70713      .   S
    Zr26   O123      0.68326      .   S
    Zr60   O123      0.68326      .   S
    Zr23   O124      0.68322      .   S
    Zr52   O124      0.68322      .   S
    Zr27   O125      0.68291      .   S
    Zr58   O125      0.68291      .   S
    Zr31   O126      0.68315      .   S
    Zr64   O126      0.68315      .   S
    Zr54   O127      0.67027      .   S
    Zr53   O127      0.67027      .   S
    Zr54   O128      1.05721      .   S
    Zr3    O128      1.05721      .   S
    Zr66   O129      0.67018      .   S
    Zr65   O129      0.67018      .   S
    Zr66   O130      1.05712      .   S
    Zr5    O130      1.05712      .   S
    Zr60   O131      0.67034      .   S
    Zr59   O131      0.67034      .   S
    Zr60   O132      1.05759      .   S
    Zr4    O132      1.05759      .   S
    Zr58   O133      0.67091      .   S
    Zr59   O133      0.67091      .   S
    Zr58   O134      1.05141      .   S
    Zr5    O134      1.05141      .   S
    Zr52   O135      0.67113      .   S
    Zr53   O135      0.67113      .   S
    Zr52   O136      1.05216      .   S
    Zr4    O136      1.05216      .   S
    Zr64   O137      0.67081      .   S
    Zr65   O137      0.67081      .   S
    Zr64   O138      1.05203      .   S
    Zr3    O138      1.05203      .   S
    Zr53   O139      1.10850      .   S
    Zr8    O139      1.10850      .   S
    Zr65   O140      1.10997      .   S
    Zr8    O140      1.10997      .   S
    Zr59   O141      1.10549      .   S
    Zr8    O141      1.10549      .   S
    Zr4    O142      1.05714      .   S
    Zr61   O142      1.05714      .   S
    Zr3    O143      1.05551      .   S
    Zr55   O143      1.05551      .   S
    Zr5    O144      1.05523      .   S
    Zr67   O144      1.05523      .   S
    Zr8    O145      1.09921      .   S
    Zr56   O145      1.09921      .   S
    Zr8    O146      1.10244      .   S
    Zr62   O146      1.10244      .   S
    Zr8    O147      1.10179      .   S
    Zr68   O147      1.10179      .   S
    Zr55   O148      0.67060      .   S
    Zr56   O148      0.67060      .   S
    Zr55   O149      0.68276      .   S
    Zr24   O149      0.68276      .   S
    Zr67   O150      0.67074      .   S
    Zr68   O150      0.67074      .   S
    Zr67   O151      0.68274      .   S
    Zr32   O151      0.68274      .   S
    Zr61   O152      0.67063      .   S
    Zr62   O152      0.67063      .   S
    Zr61   O153      0.68281      .   S
    Zr28   O153      0.68281      .   S
    Zr56   O154      0.67083      .   S
    Zr57   O154      0.67083      .   S
    Zr62   O155      0.67053      .   S
    Zr63   O155      0.67053      .   S
    Zr68   O156      0.67060      .   S
    Zr69   O156      0.67060      .   S
    Zr24   O157      0.70722      .   S
    Zr25   O157      0.70722      .   S
    Zr32   O158      0.70720      .   S
    Zr33   O158      0.70720      .   S
    Zr28   O159      0.70725      .   S
    Zr29   O159      0.70725      .   S
    Zr57   O160      0.68401      .   S
    Zr25   O160      0.68401      .   S
    Zr57   O161      1.05660      .   S
    Zr9    O161      1.05660      .   S
    Zr63   O162      0.68384      .   S
    Zr29   O162      0.68384      .   S
    Zr63   O163      1.05741      .   S
    Zr9    O163      1.05741      .   S
    Zr69   O164      0.68395      .   S
    Zr33   O164      0.68395      .   S
    Zr69   O165      1.05590      .   S
    Zr9    O165      1.05590      .   S
    N166   O167      1.62380  1_545   S
    Zr28   O167      1.96210      .   S
    N166   O168      1.23379  1_545   S
    Zr29   O168      1.86490      .   S
    N166   O169      1.63182  1_556   S
    Zr16   O169      1.96894      .   S
    N166   O170      1.23873  1_556   S
    Zr17   O170      1.87111      .   S
    N171   O172      1.63169  1_556   S
    Zr20   O172      1.96911      .   S
    N171   O173      1.23339      .   S
    Zr25   O173      1.86479      .   S
    N171   O174      1.62405      .   S
    Zr24   O174      1.96194      .   S
    N171   O175      1.23780  1_556   S
    Zr21   O175      1.87002      .   S
    N176   O177      1.34377  1_655   S
    Zr30   O177      1.93753      .   S
    N176   O178      1.34332      .   S
    Zr10   O178      1.93714      .   S
    N176   O179      1.60204  1_655   S
    Zr31   O179      2.00388      .   S
    N176   O180      1.60221      .   S
    Zr11   O180      2.00423      .   S
    N181   O182      1.34264  1_565   S
    Zr14   O182      1.93666      .   S
    N181   O183      1.60240  1_565   S
    Zr15   O183      2.00394      .   S
    N181   O184      1.60226      .   S
    Zr27   O184      2.00389      .   S
    N181   O185      1.34325      .   S
    Zr26   O185      1.93728      .   S
    N186   O187      1.62385  1_655   S
    Zr32   O187      1.96159      .   S
    N186   O188      1.23313  1_655   S
    Zr33   O188      1.86454      .   S
    N186   O189      1.23783  1_556   S
    Zr13   O189      1.87046      .   S
    N186   O190      1.63221  1_556   S
    Zr12   O190      1.96876      .   S
    N191   O192      1.60227      .   S
    Zr19   O192      2.00455      .   S
    N191   O193      1.34322      .   S
    Zr22   O193      1.93708      .   S
    N191   O194      1.60252      .   S
    Zr23   O194      2.00473      .   S
    N191   O195      1.34418      .   S
    Zr18   O195      1.93797      .   S
