# CIF file generated by openbabel 2.4.90, see http://openbabel.sf.net
data_I
_chemical_name_common ''
_cell_length_a 17.236
_cell_length_b 16.946
_cell_length_c 17.853
_cell_angle_alpha 89.935
_cell_angle_beta 90.001
_cell_angle_gamma 89.182
_space_group_name_H-M_alt 'P 1'
_space_group_name_Hall 'P 1'
loop_
    _symmetry_equiv_pos_as_xyz
    x,y,z
loop_
    _atom_site_label
    _atom_site_type_symbol
    _atom_site_fract_x
    _atom_site_fract_y
    _atom_site_fract_z
    _atom_site_occupancy
    Zn0     Zn   0.76617   0.62000   0.37241   1.000
    Zn1     Zn   0.76299   0.38314   0.87221   1.000
    Zn2     Zn   0.26617   0.11977   0.12743   1.000
    Zn3     Zn   0.23702   0.61688   0.12777   1.000
    Zn4     Zn   0.73383   0.88025   0.87256   1.000
    Zn5     Zn   0.73696   0.11712   0.37208   1.000
    Zn6     Zn   0.23376   0.38005   0.62762   1.000
    Zn7     Zn   0.26287   0.88289   0.62700   1.000
    C8      C    0.13839   0.75218   0.10781   1.000
    C9      C    0.10186   0.87660   0.58920   1.000
    C10     C    0.86142   0.75485   0.39374   1.000
    C11     C    0.60562   0.62605   0.41220   1.000
    C12     C    0.36097   0.74584   0.60840   1.000
    C13     C    0.60195   0.37659   0.91074   1.000
    C14     C    0.36150   0.25470   0.10637   1.000
    C15     C    0.10559   0.12492   0.08739   1.000
    C16     C    0.86163   0.24785   0.89217   1.000
    C17     C    0.39805   0.62343   0.08924   1.000
    C18     C    0.63851   0.74531   0.89361   1.000
    C19     C    0.89442   0.87509   0.91258   1.000
    C20     C    0.89802   0.12345   0.41074   1.000
    C21     C    0.13847   0.24524   0.60621   1.000
    C22     C    0.39430   0.37374   0.58792   1.000
    C23     C    0.63855   0.25353   0.39169   1.000
    O24     O    0.16380   0.83340   0.59681   1.000
    O25     O    0.09016   0.94327   0.61912   1.000
    O26     O    0.86027   0.67763   0.39054   1.000
    O27     O    0.81247   0.80034   0.36500   1.000
    O28     O    0.66581   0.66985   0.40361   1.000
    O29     O    0.59630   0.55899   0.38300   1.000
    O30     O    0.35776   0.82308   0.61175   1.000
    O31     O    0.31347   0.70020   0.63710   1.000
    O32     O    0.66392   0.33344   0.90318   1.000
    O33     O    0.59017   0.44328   0.88078   1.000
    O34     O    0.36021   0.17747   0.10947   1.000
    O35     O    0.31263   0.30016   0.13517   1.000
    O36     O    0.16554   0.16896   0.09654   1.000
    O37     O    0.09650   0.05748   0.11611   1.000
    O38     O    0.85880   0.32515   0.88995   1.000
    O39     O    0.81374   0.20314   0.86284   1.000
    O40     O    0.33609   0.66658   0.09679   1.000
    O41     O    0.40983   0.55674   0.11920   1.000
    O42     O    0.63979   0.82254   0.89050   1.000
    O43     O    0.68739   0.69985   0.86482   1.000
    O44     O    0.83447   0.83105   0.90343   1.000
    O45     O    0.90351   0.94254   0.88386   1.000
    O46     O    0.14120   0.67488   0.11005   1.000
    O47     O    0.18628   0.79689   0.13712   1.000
    O48     O    0.83604   0.16661   0.40316   1.000
    O49     O    0.90980   0.05681   0.38083   1.000
    O50     O    0.13967   0.32245   0.60941   1.000
    O51     O    0.18739   0.19972   0.63497   1.000
    O52     O    0.33401   0.33008   0.59600   1.000
    O53     O    0.40378   0.44073   0.61730   1.000
    O54     O    0.64148   0.17629   0.38804   1.000
    O55     O    0.68632   0.29909   0.36329   1.000
    Ts56    Ts   0.76797   0.59150   0.40048   1.000
    Ts57    Ts   0.76147   0.60255   0.33934   1.000
    Ts58    Ts   0.75779   0.40004   0.83890   1.000
    Ts59    Ts   0.76473   0.41141   0.90024   1.000
    Ts60    Ts   0.26148   0.10210   0.16045   1.000
    Ts61    Ts   0.26810   0.09130   0.09934   1.000
    Ts62    Ts   0.23527   0.58862   0.09975   1.000
    Ts63    Ts   0.24221   0.59998   0.16108   1.000
    Ts64    Ts   0.73191   0.90871   0.90065   1.000
    Ts65    Ts   0.73852   0.89792   0.83955   1.000
    Ts66    Ts   0.74217   0.10024   0.33879   1.000
    Ts67    Ts   0.73507   0.08891   0.40017   1.000
    Ts68    Ts   0.23846   0.39749   0.66069   1.000
    Ts69    Ts   0.23202   0.40856   0.59955   1.000
    Ts70    Ts   0.26483   0.91107   0.59920   1.000
    Ts71    Ts   0.25771   0.89978   0.66058   1.000
    Og72    Og   0.11626   0.76287   0.09227   1.000
    Og73    Og   0.08150   0.86569   0.57230   1.000
    Og74    Og   0.88329   0.76526   0.40935   1.000
    Og75    Og   0.58494   0.63677   0.42924   1.000
    Og76    Og   0.38317   0.73551   0.59273   1.000
    Og77    Og   0.58161   0.36565   0.92767   1.000
    Og78    Og   0.38338   0.26511   0.09077   1.000
    Og79    Og   0.08494   0.13582   0.07043   1.000
    Og80    Og   0.88375   0.23716   0.90771   1.000
    Og81    Og   0.41840   0.63436   0.07231   1.000
    Og82    Og   0.61663   0.73489   0.90921   1.000
    Og83    Og   0.91507   0.86420   0.92954   1.000
    Og84    Og   0.91837   0.13438   0.42763   1.000
    Og85    Og   0.11660   0.23483   0.59061   1.000
    Og86    Og   0.41495   0.36298   0.57090   1.000
    Og87    Og   0.61638   0.26388   0.40736   1.000
loop_
    _geom_bond_atom_site_label_1
    _geom_bond_atom_site_label_2
    _geom_bond_distance
    _geom_bond_site_symmetry_2
    _ccdc_geom_bond_type
    C15    O36       1.29368      .   S
    C15    O37       1.26390      .   S
    C17    O40       1.29285      .   S
    C17    O41       1.26354      .   S
    O36    Zn2       1.99126      .   S
    O40    Zn3       1.99280      .   S
    C14    O34       1.31038      .   S
    C14    O35       1.24491      .   S
    C8     O46       1.31073      .   S
    C8     O47       1.24422      .   S
    O34    Zn2       1.93148      .   S
    O46    Zn3       1.93552      .   S
    O55    C23       1.24432      .   S
    O27    C10       1.24494      .   S
    Zn5    O54       1.93613      .   S
    Zn5    O48       1.99244      .   S
    Zn0    O26       1.93262      .   S
    Zn0    O28       1.99380      .   S
    O49    C20       1.26355      .   S
    O29    C11       1.26318      .   S
    O54    C23       1.31079      .   S
    O26    C10       1.31025      .   S
    O48    C20       1.29295      .   S
    O28    C11       1.29312      .   S
    C22    O52       1.29219      .   S
    C22    O53       1.26382      .   S
    C9     O24       1.29293      .   S
    C9     O25       1.26376      .   S
    O52    Zn6       1.99523      .   S
    O24    Zn7       1.98786      .   S
    C21    O50       1.31027      .   S
    C21    O51       1.24499      .   S
    C12    O30       1.31072      .   S
    C12    O31       1.24419      .   S
    O50    Zn6       1.93251      .   S
    O30    Zn7       1.93133      .   S
    O39    C16       1.24428      .   S
    O43    C18       1.24494      .   S
    Zn1    O38       1.93550      .   S
    Zn1    O32       1.99282      .   S
    Zn4    O42       1.93150      .   S
    Zn4    O44       1.99128      .   S
    O33    C13       1.26359      .   S
    O45    C19       1.26391      .   S
    O38    C16       1.31074      .   S
    O42    C18       1.31036      .   S
    O32    C13       1.29285      .   S
    O44    C19       1.29368      .   S
    Zn0    Ts56      0.69592      .   S
    Zn0    Ts57      0.66603      .   S
    Zn1    Ts58      0.66525      .   S
    Zn1    Ts59      0.69409      .   S
    Zn2    Ts60      0.66629      .   S
    Zn2    Ts61      0.69667      .   S
    Zn3    Ts62      0.69398      .   S
    Zn3    Ts63      0.66527      .   S
    Zn4    Ts64      0.69656      .   S
    Zn4    Ts65      0.66623      .   S
    Zn5    Ts66      0.66542      .   S
    Zn5    Ts67      0.69351      .   S
    Zn6    Ts68      0.66594      .   S
    Zn6    Ts69      0.69595      .   S
    Zn7    Ts70      0.68952      .   S
    Zn7    Ts71      0.67004      .   S
    C8     Og72      0.50307      .   S
    C9     Og73      0.50035      .   S
    C10    Og74      0.50275      .   S
    C11    Og75      0.50091      .   S
    C12    Og76      0.50345      .   S
    C13    Og77      0.50040      .   S
    C14    Og78      0.50268      .   S
    C15    Og79      0.50047      .   S
    C16    Og80      0.50308      .   S
    C17    Og81      0.50042      .   S
    C18    Og82      0.50266      .   S
    C19    Og83      0.50047      .   S
    C20    Og84      0.50019      .   S
    C21    Og85      0.50273      .   S
    C22    Og86      0.50053      .   S
    C23    Og87      0.50332      .   S
