# CIF file generated by openbabel 2.4.90, see http://openbabel.sf.net
data_I
_chemical_name_common ''
_cell_length_a 17.236
_cell_length_b 16.946
_cell_length_c 17.853
_cell_angle_alpha 89.935
_cell_angle_beta 90.001
_cell_angle_gamma 89.182
_space_group_name_H-M_alt 'P 1'
_space_group_name_Hall 'P 1'
loop_
    _symmetry_equiv_pos_as_xyz
    x,y,z
loop_
    _atom_site_label
    _atom_site_type_symbol
    _atom_site_fract_x
    _atom_site_fract_y
    _atom_site_fract_z
    _atom_site_occupancy
    N0      N    0.98404   0.81494   0.48953   1.000
    N1      N    0.74496   0.52981   0.11156   1.000
    N2      N    0.24500   0.02904   0.38821   1.000
    N3      N    0.25686   0.52839   0.38944   1.000
    N4      N    0.74315   0.47163   0.61055   1.000
    N5      N    0.75497   0.97080   0.61175   1.000
    N6      N    0.01583   0.18515   0.51043   1.000
    N7      N    0.51403   0.31301   0.48780   1.000
    N8      N    0.24324   0.97142   0.88939   1.000
    N9      N    0.25500   0.47020   0.88841   1.000
    N10     N    0.75677   0.02856   0.11055   1.000
    N11     N    0.48416   0.31484   0.01056   1.000
    N12     N    0.51584   0.68517   0.98540   1.000
    N13     N    0.98593   0.18671   0.98361   1.000
    N14     N    0.48570   0.68655   0.51235   1.000
    N15     N    0.01408   0.81331   0.01232   1.000
    Zr16    Zr   0.26163   0.32743   0.61135   1.000
    O17     O    0.25281   0.40152   0.54941   1.000
    O18     O    0.25476   0.38282   0.69708   1.000
    O19     O    0.16119   0.26741   0.57898   1.000
    O20     O    0.36564   0.33137   0.56822   1.000
    Zr21    Zr   0.73829   0.67253   0.38864   1.000
    O22     O    0.74517   0.61717   0.30291   1.000
    O23     O    0.74715   0.59848   0.45059   1.000
    O24     O    0.83871   0.73261   0.42099   1.000
    O25     O    0.63422   0.66843   0.43185   1.000
    Zr26    Zr   0.73617   0.33037   0.88741   1.000
    O27     O    0.63198   0.33394   0.93038   1.000
    O28     O    0.74572   0.40402   0.95016   1.000
    O29     O    0.74267   0.38521   0.80190   1.000
    O30     O    0.83827   0.26982   0.91848   1.000
    Zr31    Zr   0.23584   0.82932   0.61277   1.000
    O32     O    0.33791   0.76889   0.58069   1.000
    O33     O    0.24562   0.90321   0.54976   1.000
    O34     O    0.24251   0.88457   0.69808   1.000
    O35     O    0.13176   0.83346   0.56973   1.000
    Zr36    Zr   0.23831   0.17192   0.11121   1.000
    O37     O    0.33877   0.23225   0.07899   1.000
    O38     O    0.13429   0.16795   0.06699   1.000
    O39     O    0.24519   0.11654   0.19690   1.000
    O40     O    0.24723   0.09808   0.04928   1.000
    Zr41    Zr   0.76170   0.82809   0.88877   1.000
    O42     O    0.86572   0.83206   0.93197   1.000
    O43     O    0.66124   0.76776   0.91998   1.000
    O44     O    0.75278   0.90192   0.95069   1.000
    O45     O    0.75481   0.88343   0.80308   1.000
    Zr46    Zr   0.26384   0.66966   0.11257   1.000
    O47     O    0.36802   0.66608   0.06859   1.000
    O48     O    0.16174   0.73021   0.08049   1.000
    O49     O    0.25734   0.61481   0.19808   1.000
    O50     O    0.25427   0.59600   0.04982   1.000
    Zr51    Zr   0.76388   0.17041   0.38712   1.000
    O52     O    0.66177   0.23072   0.41931   1.000
    O53     O    0.86804   0.16645   0.43018   1.000
    O54     O    0.75733   0.11530   0.30173   1.000
    O55     O    0.75422   0.09661   0.45005   1.000
loop_
    _geom_bond_atom_site_label_1
    _geom_bond_atom_site_label_2
    _geom_bond_distance
    _geom_bond_site_symmetry_2
    _ccdc_geom_bond_type
    Zr16   O17       1.67727      .   S
    N3     O17       3.57421      .   S
    Zr16   O18       1.79940      .   S
    N9     O18       3.72455      .   S
    Zr16   O19       2.10165      .   S
    N6     O19       3.13396      .   S
    Zr16   O20       1.95312      .   S
    N7     O20       2.94587      .   S
    Zr21   O22       1.79905      .   S
    N1     O22       3.72480      .   S
    Zr21   O23       1.67691      .   S
    N4     O23       3.57377      .   S
    Zr21   O24       2.10183      .   S
    N0     O24       3.13399      .   S
    Zr21   O25       1.95472      .   S
    N14    O25       2.94818      .   S
    Zr26   O27       1.95293      .   S
    N11    O27       2.94416  1_554   S
    Zr26   O28       1.68788      .   S
    N1     O28       3.58604  1_554   S
    Zr26   O29       1.79065      .   S
    N4     O29       3.71541      .   S
    Zr26   O30       2.09871      .   S
    N13    O30       3.11554      .   S
    Zr31   O32       2.10281      .   S
    N14    O32       3.13474      .   S
    Zr31   O33       1.69243      .   S
    N2     O33       3.58479  1_545   S
    Zr31   O34       1.79319      .   S
    N8     O34       3.72073      .   S
    Zr31   O35       1.95185      .   S
    N0     O35       2.94189  1_655   S
    Zr36   O37       2.10330      .   S
    N11    O37       3.13485      .   S
    Zr36   O38       1.96099      .   S
    N13    O38       2.97185  1_656   S
    Zr36   O39       1.79683      .   S
    N2     O39       3.72190      .   S
    Zr36   O40       1.67618      .   S
    N8     O40       3.57464  1_566   S
    Zr41   O42       1.95379      .   S
    N15    O42       2.94509  1_454   S
    Zr41   O43       2.09851      .   S
    N12    O43       3.11431      .   S
    Zr41   O44       1.67598      .   S
    N10    O44       3.57399  1_544   S
    Zr41   O45       1.79650      .   S
    N5     O45       3.72137      .   S
    Zr46   O47       1.96004      .   S
    N12    O47       2.97070  1_556   S
    Zr46   O48       2.10351      .   S
    N15    O48       3.13610      .   S
    Zr46   O49       1.79071      .   S
    N3     O49       3.71549      .   S
    Zr46   O50       1.68794      .   S
    N9     O50       3.58630  1_556   S
    Zr51   O52       2.10294      .   S
    N7     O52       3.13475      .   S
    Zr51   O53       1.95313      .   S
    N6     O53       2.94375  1_455   S
    Zr51   O54       1.79310      .   S
    N10    O54       3.71780      .   S
    Zr51   O55       1.69031      .   S
    N5     O55       3.58667  1_565   S
