# CIF file generated by openbabel 2.4.90, see http://openbabel.sf.net
data_I
_chemical_name_common ''
_cell_length_a 20.211
_cell_length_b 23.023
_cell_length_c 14.943
_cell_angle_alpha 91.186
_cell_angle_beta 89.997
_cell_angle_gamma 89.948
_space_group_name_H-M_alt 'P 1'
_space_group_name_Hall 'P 1'
loop_
    _symmetry_equiv_pos_as_xyz
    x,y,z
loop_
    _atom_site_label
    _atom_site_type_symbol
    _atom_site_fract_x
    _atom_site_fract_y
    _atom_site_fract_z
    _atom_site_occupancy
    C0      C    0.46392   0.37759   0.13166   1.000
    C1      C    0.46392   0.87759   0.13166   1.000
    C2      C    0.96391   0.37759   0.13166   1.000
    C3      C    0.96391   0.87759   0.13166   1.000
    C4      C    0.05860   0.37020   0.30875   1.000
    C5      C    0.05861   0.87020   0.30875   1.000
    C6      C    0.55859   0.37020   0.30875   1.000
    C7      C    0.55860   0.87020   0.30875   1.000
    C8      C    0.21392   0.37244   0.36836   1.000
    C9      C    0.21392   0.87245   0.36836   1.000
    C10     C    0.71391   0.37244   0.36836   1.000
    C11     C    0.71391   0.87245   0.36836   1.000
    C12     C    0.30858   0.37983   0.19124   1.000
    C13     C    0.30859   0.87984   0.19124   1.000
    C14     C    0.80857   0.37983   0.19124   1.000
    C15     C    0.80857   0.87984   0.19124   1.000
    C16     C    0.03607   0.12242   0.86834   1.000
    C17     C    0.03607   0.62243   0.86834   1.000
    C18     C    0.53606   0.12242   0.86834   1.000
    C19     C    0.53606   0.62243   0.86834   1.000
    C20     C    0.44138   0.12981   0.69125   1.000
    C21     C    0.44139   0.62982   0.69125   1.000
    C22     C    0.94137   0.12981   0.69125   1.000
    C23     C    0.94137   0.62982   0.69125   1.000
    C24     C    0.28607   0.12757   0.63164   1.000
    C25     C    0.28607   0.62757   0.63164   1.000
    C26     C    0.78606   0.12757   0.63164   1.000
    C27     C    0.78606   0.62757   0.63164   1.000
    C28     C    0.19140   0.12018   0.80876   1.000
    C29     C    0.19141   0.62018   0.80876   1.000
    C30     C    0.69139   0.12018   0.80876   1.000
    C31     C    0.69139   0.62018   0.80876   1.000
    C32     C    0.00000   0.25000   0.00000   1.000
    C33     C    0.00000   0.75001   0.00000   1.000
    C34     C    0.49999   0.25000   0.00000   1.000
    C35     C    0.49999   0.75001   0.00000   1.000
    C36     C    0.24999   0.00000   0.50000   1.000
    C37     C    0.25000   0.50001   0.50000   1.000
    C38     C    0.74998   0.00000   0.50000   1.000
    C39     C    0.74998   0.50001   0.50000   1.000
    C40     C    0.00000   0.00000   0.00000   1.000
    C41     C    0.99998   0.50001   0.00000   1.000
    C42     C    0.49999   0.00000   0.00000   1.000
    C43     C    0.49999   0.50001   0.00000   1.000
    C44     C    0.24999   0.25000   0.50000   1.000
    C45     C    0.25000   0.75001   0.50000   1.000
    C46     C    0.74998   0.25000   0.50000   1.000
    C47     C    0.74998   0.75001   0.50000   1.000
    C48     C    0.37879   0.42924   0.37155   1.000
    C49     C    0.37879   0.92924   0.37150   1.000
    C50     C    0.87878   0.42924   0.37150   1.000
    C51     C    0.87878   0.92924   0.37156   1.000
    C52     C    0.02804   0.23654   0.26827   1.000
    C53     C    0.02805   0.73654   0.26827   1.000
    C54     C    0.52803   0.23654   0.26827   1.000
    C55     C    0.52803   0.73654   0.26827   1.000
    C56     C    0.30451   0.28000   0.04717   1.000
    C57     C    0.30451   0.78001   0.04717   1.000
    C58     C    0.80450   0.28000   0.04717   1.000
    C59     C    0.80450   0.78000   0.04717   1.000
    C60     C    0.10530   0.49043   0.23035   1.000
    C61     C    0.10530   0.99043   0.23035   1.000
    C62     C    0.60529   0.49043   0.23035   1.000
    C63     C    0.60529   0.99043   0.23035   1.000
    C64     C    0.08091   0.34408   0.92165   1.000
    C65     C    0.08091   0.84409   0.92165   1.000
    C66     C    0.58089   0.34408   0.92164   1.000
    C67     C    0.58090   0.84409   0.92165   1.000
    C68     C    0.35416   0.00123   0.01225   1.000
    C69     C    0.35416   0.50123   0.01225   1.000
    C70     C    0.85414   0.00122   0.01225   1.000
    C71     C    0.85415   0.50123   0.01225   1.000
    C72     C    0.12889   0.32077   0.12840   1.000
    C73     C    0.12889   0.82078   0.12840   1.000
    C74     C    0.62887   0.32077   0.12848   1.000
    C75     C    0.62888   0.82078   0.12840   1.000
    C76     C    0.27793   0.01345   0.23170   1.000
    C77     C    0.27793   0.51345   0.23170   1.000
    C78     C    0.77792   0.01345   0.23170   1.000
    C79     C    0.77792   0.51345   0.23171   1.000
    C80     C    0.05448   0.47023   0.45281   1.000
    C81     C    0.05448   0.97024   0.45281   1.000
    C82     C    0.55446   0.47023   0.45281   1.000
    C83     C    0.55447   0.97024   0.45281   1.000
    C84     C    0.35534   0.25949   0.26965   1.000
    C85     C    0.35535   0.75950   0.26965   1.000
    C86     C    0.85533   0.25949   0.26965   1.000
    C87     C    0.85534   0.75950   0.26965   1.000
    C88     C    0.33092   0.40583   0.57829   1.000
    C89     C    0.33093   0.90584   0.57829   1.000
    C90     C    0.83091   0.40583   0.57829   1.000
    C91     C    0.83091   0.90584   0.57829   1.000
    C92     C    0.10427   0.24888   0.48785   1.000
    C93     C    0.10427   0.74889   0.48785   1.000
    C94     C    0.60426   0.24888   0.48785   1.000
    C95     C    0.60426   0.74889   0.48785   1.000
    C96     C    0.12120   0.07077   0.62845   1.000
    C97     C    0.12120   0.57078   0.62845   1.000
    C98     C    0.62119   0.07077   0.62845   1.000
    C99     C    0.62119   0.57078   0.62845   1.000
    C100    C    0.47194   0.26347   0.73173   1.000
    C101    C    0.47195   0.76348   0.73173   1.000
    C102    C    0.97194   0.26347   0.73173   1.000
    C103    C    0.97193   0.76348   0.73173   1.000
    C104    C    0.19548   0.22001   0.95283   1.000
    C105    C    0.19548   0.72001   0.95283   1.000
    C106    C    0.69547   0.22001   0.95283   1.000
    C107    C    0.69547   0.72001   0.95283   1.000
    C108    C    0.39469   0.00958   0.76965   1.000
    C109    C    0.39469   0.50958   0.76965   1.000
    C110    C    0.89468   0.00958   0.76965   1.000
    C111    C    0.89468   0.50959   0.76965   1.000
    C112    C    0.41908   0.15592   0.07835   1.000
    C113    C    0.41908   0.65593   0.07830   1.000
    C114    C    0.91907   0.15592   0.07836   1.000
    C115    C    0.91907   0.65593   0.07836   1.000
    C116    C    0.14583   0.49878   0.98775   1.000
    C117    C    0.14584   0.99879   0.98775   1.000
    C118    C    0.64582   0.49878   0.98775   1.000
    C119    C    0.64582   0.99879   0.98775   1.000
    C120    C    0.37110   0.17924   0.87152   1.000
    C121    C    0.37110   0.67924   0.87152   1.000
    C122    C    0.87109   0.17924   0.87152   1.000
    C123    C    0.87109   0.67924   0.87152   1.000
    C124    C    0.22205   0.48656   0.76830   1.000
    C125    C    0.22206   0.98656   0.76830   1.000
    C126    C    0.72204   0.48656   0.76830   1.000
    C127    C    0.72205   0.98657   0.76830   1.000
    C128    C    0.44551   0.02978   0.54719   1.000
    C129    C    0.44551   0.52978   0.54719   1.000
    C130    C    0.94550   0.02977   0.54719   1.000
    C131    C    0.94550   0.52978   0.54719   1.000
    C132    C    0.14464   0.24052   0.73035   1.000
    C133    C    0.14465   0.74052   0.73035   1.000
    C134    C    0.64463   0.24052   0.73035   1.000
    C135    C    0.64463   0.74052   0.73035   1.000
    C136    C    0.16906   0.09418   0.42171   1.000
    C137    C    0.16907   0.59418   0.42171   1.000
    C138    C    0.66905   0.09418   0.42171   1.000
    C139    C    0.66906   0.59418   0.42171   1.000
    C140    C    0.39572   0.25113   0.51210   1.000
    C141    C    0.39572   0.75113   0.51210   1.000
    C142    C    0.89571   0.25113   0.51216   1.000
    C143    C    0.89571   0.75113   0.51216   1.000
    C144    C    0.41934   0.41308   0.32828   1.000
    C145    C    0.41934   0.91308   0.32828   1.000
    C146    C    0.91933   0.41308   0.32828   1.000
    C147    C    0.91933   0.91308   0.32828   1.000
    C148    C    0.01350   0.25934   0.20690   1.000
    C149    C    0.01351   0.75934   0.20690   1.000
    C150    C    0.51349   0.25934   0.20690   1.000
    C151    C    0.51349   0.75934   0.20690   1.000
    C152    C    0.35835   0.28754   0.05350   1.000
    C153    C    0.35835   0.78754   0.05354   1.000
    C154    C    0.85833   0.28754   0.05354   1.000
    C155    C    0.85834   0.78754   0.05350   1.000
    C156    C    0.06860   0.47586   0.17967   1.000
    C157    C    0.06861   0.97586   0.17967   1.000
    C158    C    0.56859   0.47586   0.17967   1.000
    C159    C    0.56860   0.97586   0.17967   1.000
    C160    C    0.05052   0.37145   0.96703   1.000
    C161    C    0.05052   0.87146   0.96703   1.000
    C162    C    0.55051   0.37145   0.96703   1.000
    C163    C    0.55051   0.87146   0.96703   1.000
    C164    C    0.36318   0.46491   0.05758   1.000
    C165    C    0.36319   0.96492   0.05758   1.000
    C166    C    0.86317   0.46491   0.05758   1.000
    C167    C    0.86318   0.96492   0.05758   1.000
    C168    C    0.16940   0.33695   0.17170   1.000
    C169    C    0.16941   0.83695   0.17170   1.000
    C170    C    0.66939   0.33695   0.17170   1.000
    C171    C    0.66939   0.83695   0.17170   1.000
    C172    C    0.26343   0.49067   0.29309   1.000
    C173    C    0.26343   0.99068   0.29309   1.000
    C174    C    0.76342   0.49067   0.29300   1.000
    C175    C    0.76342   0.99068   0.29309   1.000
    C176    C    0.10831   0.46263   0.44642   1.000
    C177    C    0.10832   0.96263   0.44642   1.000
    C178    C    0.60830   0.46263   0.44642   1.000
    C179    C    0.60831   0.96263   0.44642   1.000
    C180    C    0.31863   0.27411   0.32032   1.000
    C181    C    0.31863   0.77412   0.32032   1.000
    C182    C    0.81862   0.27411   0.32032   1.000
    C183    C    0.81862   0.77412   0.32032   1.000
    C184    C    0.30052   0.37851   0.53294   1.000
    C185    C    0.30052   0.87851   0.53294   1.000
    C186    C    0.80051   0.37851   0.53294   1.000
    C187    C    0.80051   0.87851   0.53294   1.000
    C188    C    0.11324   0.28517   0.44247   1.000
    C189    C    0.11325   0.78517   0.44247   1.000
    C190    C    0.61323   0.28517   0.44247   1.000
    C191    C    0.61323   0.78517   0.44247   1.000
    C192    C    0.08065   0.08693   0.67172   1.000
    C193    C    0.08065   0.58694   0.67172   1.000
    C194    C    0.58064   0.08693   0.67172   1.000
    C195    C    0.58064   0.58694   0.67172   1.000
    C196    C    0.48648   0.24067   0.79310   1.000
    C197    C    0.48649   0.74068   0.79310   1.000
    C198    C    0.98647   0.24067   0.79310   1.000
    C199    C    0.98648   0.74068   0.79310   1.000
    C200    C    0.14164   0.21247   0.94646   1.000
    C201    C    0.14165   0.71247   0.94646   1.000
    C202    C    0.64163   0.21247   0.94646   1.000
    C203    C    0.64163   0.71247   0.94646   1.000
    C204    C    0.43138   0.02415   0.82033   1.000
    C205    C    0.43139   0.52416   0.82033   1.000
    C206    C    0.93137   0.02415   0.82033   1.000
    C207    C    0.93137   0.52416   0.82033   1.000
    C208    C    0.44947   0.12855   0.03297   1.000
    C209    C    0.44947   0.62856   0.03297   1.000
    C210    C    0.94946   0.12855   0.03297   1.000
    C211    C    0.94946   0.62856   0.03297   1.000
    C212    C    0.13680   0.03510   0.94242   1.000
    C213    C    0.13681   0.53510   0.94242   1.000
    C214    C    0.63679   0.03510   0.94242   1.000
    C215    C    0.63679   0.53510   0.94242   1.000
    C216    C    0.33059   0.16306   0.82827   1.000
    C217    C    0.33059   0.66307   0.82827   1.000
    C218    C    0.83057   0.16306   0.82827   1.000
    C219    C    0.83058   0.66307   0.82827   1.000
    C220    C    0.23656   0.00933   0.70691   1.000
    C221    C    0.23656   0.50934   0.70691   1.000
    C222    C    0.73654   0.00933   0.70691   1.000
    C223    C    0.73655   0.50934   0.70691   1.000
    C224    C    0.39167   0.03738   0.55358   1.000
    C225    C    0.39167   0.53739   0.55358   1.000
    C226    C    0.89166   0.03738   0.55358   1.000
    C227    C    0.89166   0.53739   0.55358   1.000
    C228    C    0.18136   0.22590   0.67968   1.000
    C229    C    0.18136   0.72590   0.67968   1.000
    C230    C    0.68134   0.22590   0.67968   1.000
    C231    C    0.68135   0.72590   0.67968   1.000
    C232    C    0.19947   0.12150   0.46706   1.000
    C233    C    0.19947   0.62151   0.46706   1.000
    C234    C    0.69946   0.12150   0.46706   1.000
    C235    C    0.69946   0.62151   0.46706   1.000
    C236    C    0.38674   0.21484   0.55754   1.000
    C237    C    0.38675   0.71485   0.55754   1.000
    C238    C    0.88673   0.21484   0.55754   1.000
    C239    C    0.88673   0.71485   0.55754   1.000
    C240    C    0.40479   0.40209   0.24605   1.000
    C241    C    0.40480   0.90210   0.24605   1.000
    C242    C    0.90478   0.40209   0.24605   1.000
    C243    C    0.90478   0.90210   0.24605   1.000
    C244    C    0.47530   0.40770   0.36406   1.000
    C245    C    0.47530   0.90771   0.36406   1.000
    C246    C    0.97529   0.40770   0.36406   1.000
    C247    C    0.97529   0.90771   0.36406   1.000
    C248    C    0.00905   0.31500   0.21486   1.000
    C249    C    0.00905   0.81500   0.21486   1.000
    C250    C    0.50904   0.31500   0.21486   1.000
    C251    C    0.50904   0.81500   0.21486   1.000
    C252    C    0.00280   0.22969   0.13730   1.000
    C253    C    0.00280   0.72970   0.13730   1.000
    C254    C    0.50279   0.22969   0.13730   1.000
    C255    C    0.50279   0.72970   0.13730   1.000
    C256    C    0.37546   0.32567   0.11352   1.000
    C257    C    0.37547   0.82568   0.11350   1.000
    C258    C    0.87545   0.32567   0.11350   1.000
    C259    C    0.87545   0.82567   0.11350   1.000
    C260    C    0.39622   0.25860   0.00342   1.000
    C261    C    0.39622   0.75860   0.00342   1.000
    C262    C    0.89621   0.25860   0.00342   1.000
    C263    C    0.89621   0.75860   0.00342   1.000
    C264    C    0.04425   0.42501   0.19147   1.000
    C265    C    0.04425   0.92502   0.19147   1.000
    C266    C    0.54424   0.42501   0.19147   1.000
    C267    C    0.54424   0.92502   0.19147   1.000
    C268    C    0.05555   0.00981   0.11778   1.000
    C269    C    0.05555   0.50982   0.11778   1.000
    C270    C    0.55554   0.00981   0.11778   1.000
    C271    C    0.55554   0.50982   0.11778   1.000
    C272    C    0.01383   0.34308   0.02203   1.000
    C273    C    0.01383   0.84309   0.02203   1.000
    C274    C    0.51382   0.34308   0.02200   1.000
    C275    C    0.51382   0.84309   0.02203   1.000
    C276    C    0.05517   0.42531   0.96141   1.000
    C277    C    0.05517   0.92531   0.96141   1.000
    C278    C    0.55516   0.42531   0.96141   1.000
    C279    C    0.55516   0.92531   0.96141   1.000
    C280    C    0.42384   0.44803   0.06323   1.000
    C281    C    0.42385   0.94804   0.06323   1.000
    C282    C    0.92383   0.44803   0.06323   1.000
    C283    C    0.92383   0.94804   0.06323   1.000
    C284    C    0.31420   0.44464   0.09798   1.000
    C285    C    0.31420   0.94464   0.09798   1.000
    C286    C    0.81419   0.44464   0.09798   1.000
    C287    C    0.81419   0.94464   0.09798   1.000
    C288    C    0.15485   0.34792   0.25397   1.000
    C289    C    0.15485   0.84793   0.25397   1.000
    C290    C    0.65483   0.34792   0.25397   1.000
    C291    C    0.65484   0.84793   0.25397   1.000
    C292    C    0.22535   0.34234   0.13594   1.000
    C293    C    0.22535   0.84235   0.13594   1.000
    C294    C    0.72533   0.34234   0.13594   1.000
    C295    C    0.72534   0.84235   0.13594   1.000
    C296    C    0.25893   0.43502   0.28512   1.000
    C297    C    0.25893   0.93503   0.28512   1.000
    C298    C    0.75892   0.43502   0.28512   1.000
    C299    C    0.75892   0.93503   0.28512   1.000
    C300    C    0.25281   0.02032   0.36266   1.000
    C301    C    0.25282   0.52033   0.36266   1.000
    C302    C    0.75280   0.02032   0.36266   1.000
    C303    C    0.75280   0.52033   0.36266   1.000
    C304    C    0.12543   0.42441   0.38652   1.000
    C305    C    0.12543   0.92441   0.38652   1.000
    C306    C    0.62542   0.42441   0.38652   1.000
    C307    C    0.62542   0.92441   0.38652   1.000
    C308    C    0.14618   0.49159   0.49644   1.000
    C309    C    0.14619   0.99160   0.49644   1.000
    C310    C    0.64617   0.49159   0.49644   1.000
    C311    C    0.64617   0.99160   0.49644   1.000
    C312    C    0.29427   0.32500   0.30850   1.000
    C313    C    0.29428   0.82500   0.30850   1.000
    C314    C    0.79426   0.32500   0.30850   1.000
    C315    C    0.79426   0.82500   0.30850   1.000
    C316    C    0.30556   0.24017   0.38220   1.000
    C317    C    0.30556   0.74017   0.38220   1.000
    C318    C    0.80555   0.24017   0.38220   1.000
    C319    C    0.80555   0.74017   0.38220   1.000
    C320    C    0.26382   0.40693   0.47790   1.000
    C321    C    0.26383   0.90693   0.47790   1.000
    C322    C    0.76381   0.40693   0.47792   1.000
    C323    C    0.76382   0.90693   0.47790   1.000
    C324    C    0.30514   0.32465   0.53860   1.000
    C325    C    0.30514   0.82465   0.53860   1.000
    C326    C    0.80512   0.32465   0.53860   1.000
    C327    C    0.80513   0.82465   0.53860   1.000
    C328    C    0.17387   0.30203   0.43680   1.000
    C329    C    0.17388   0.80204   0.43680   1.000
    C330    C    0.67386   0.30203   0.43680   1.000
    C331    C    0.67386   0.80204   0.43680   1.000
    C332    C    0.06424   0.30542   0.40201   1.000
    C333    C    0.06424   0.80543   0.40201   1.000
    C334    C    0.56422   0.30542   0.40201   1.000
    C335    C    0.56423   0.80543   0.40201   1.000
    C336    C    0.09519   0.09791   0.75395   1.000
    C337    C    0.09520   0.59792   0.75395   1.000
    C338    C    0.59518   0.09791   0.75395   1.000
    C339    C    0.59518   0.59792   0.75395   1.000
    C340    C    0.02469   0.09231   0.63590   1.000
    C341    C    0.02469   0.59231   0.63594   1.000
    C342    C    0.52467   0.09231   0.63594   1.000
    C343    C    0.52468   0.59231   0.63594   1.000
    C344    C    0.49094   0.18501   0.78515   1.000
    C345    C    0.49094   0.68502   0.78515   1.000
    C346    C    0.99092   0.18501   0.78515   1.000
    C347    C    0.99093   0.68502   0.78515   1.000
    C348    C    0.49719   0.27032   0.86264   1.000
    C349    C    0.49719   0.77032   0.86264   1.000
    C350    C    0.99718   0.27032   0.86264   1.000
    C351    C    0.99718   0.77032   0.86264   1.000
    C352    C    0.12452   0.17434   0.88648   1.000
    C353    C    0.12453   0.67434   0.88648   1.000
    C354    C    0.62451   0.17434   0.88648   1.000
    C355    C    0.62452   0.67434   0.88648   1.000
    C356    C    0.10377   0.24141   0.99659   1.000
    C357    C    0.10377   0.74141   0.99659   1.000
    C358    C    0.60376   0.24141   0.99650   1.000
    C359    C    0.60376   0.74142   0.99659   1.000
    C360    C    0.45574   0.07500   0.80853   1.000
    C361    C    0.45574   0.57500   0.80853   1.000
    C362    C    0.95573   0.07500   0.80853   1.000
    C363    C    0.95573   0.57500   0.80853   1.000
    C364    C    0.44444   0.49020   0.88223   1.000
    C365    C    0.44444   0.99020   0.88223   1.000
    C366    C    0.94443   0.49020   0.88223   1.000
    C367    C    0.94443   0.99020   0.88223   1.000
    C368    C    0.48616   0.15693   0.97798   1.000
    C369    C    0.48616   0.65693   0.97798   1.000
    C370    C    0.98615   0.15693   0.97798   1.000
    C371    C    0.98615   0.65693   0.97798   1.000
    C372    C    0.44482   0.07470   0.03859   1.000
    C373    C    0.44482   0.57471   0.03859   1.000
    C374    C    0.94481   0.07470   0.03859   1.000
    C375    C    0.94481   0.57471   0.03859   1.000
    C376    C    0.07614   0.05198   0.93677   1.000
    C377    C    0.07615   0.55198   0.93677   1.000
    C378    C    0.57613   0.05198   0.93677   1.000
    C379    C    0.57614   0.55198   0.93677   1.000
    C380    C    0.18579   0.05537   0.90202   1.000
    C381    C    0.18579   0.55538   0.90202   1.000
    C382    C    0.68578   0.05537   0.90202   1.000
    C383    C    0.68578   0.55538   0.90202   1.000
    C384    C    0.34514   0.15209   0.74603   1.000
    C385    C    0.34514   0.65209   0.74603   1.000
    C386    C    0.84513   0.15209   0.74603   1.000
    C387    C    0.84513   0.65209   0.74603   1.000
    C388    C    0.27464   0.15767   0.86407   1.000
    C389    C    0.27464   0.65768   0.86407   1.000
    C390    C    0.77463   0.15767   0.86400   1.000
    C391    C    0.77463   0.65767   0.86407   1.000
    C392    C    0.24106   0.06498   0.71488   1.000
    C393    C    0.24106   0.56499   0.71488   1.000
    C394    C    0.74105   0.06498   0.71488   1.000
    C395    C    0.74105   0.56499   0.71488   1.000
    C396    C    0.24717   0.47968   0.63734   1.000
    C397    C    0.24718   0.97969   0.63734   1.000
    C398    C    0.74716   0.47968   0.63734   1.000
    C399    C    0.74717   0.97969   0.63734   1.000
    C400    C    0.37456   0.07560   0.61349   1.000
    C401    C    0.37456   0.57561   0.61349   1.000
    C402    C    0.87455   0.07560   0.61349   1.000
    C403    C    0.87455   0.57561   0.61349   1.000
    C404    C    0.35380   0.00842   0.50356   1.000
    C405    C    0.35381   0.50842   0.50356   1.000
    C406    C    0.85379   0.00842   0.50356   1.000
    C407    C    0.85380   0.50842   0.50356   1.000
    C408    C    0.20571   0.17501   0.69148   1.000
    C409    C    0.20572   0.67502   0.69148   1.000
    C410    C    0.70570   0.17501   0.69148   1.000
    C411    C    0.70571   0.67502   0.69148   1.000
    C412    C    0.19443   0.25984   0.61780   1.000
    C413    C    0.19443   0.75985   0.61780   1.000
    C414    C    0.69442   0.25984   0.61780   1.000
    C415    C    0.69442   0.75985   0.61780   1.000
    C416    C    0.23616   0.09308   0.52208   1.000
    C417    C    0.23617   0.59309   0.52208   1.000
    C418    C    0.73615   0.09308   0.52208   1.000
    C419    C    0.73615   0.59309   0.52208   1.000
    C420    C    0.19485   0.17536   0.46140   1.000
    C421    C    0.19485   0.67537   0.46140   1.000
    C422    C    0.69484   0.17536   0.46140   1.000
    C423    C    0.69484   0.67537   0.46140   1.000
    C424    C    0.32611   0.19798   0.56320   1.000
    C425    C    0.32612   0.69798   0.56320   1.000
    C426    C    0.82610   0.19798   0.56320   1.000
    C427    C    0.82611   0.69798   0.56320   1.000
    C428    C    0.43575   0.19459   0.59799   1.000
    C429    C    0.43576   0.69459   0.59799   1.000
    C430    C    0.93574   0.19459   0.59799   1.000
    C431    C    0.93574   0.69459   0.59799   1.000
    O432    O    0.94811   0.25430   0.00171   1.000
    O433    O    0.00140   0.23985   0.06865   1.000
    O434    O    0.99859   0.26016   0.93132   1.000
    O435    O    0.05188   0.24571   0.99829   1.000
    O436    O    0.94811   0.75431   0.00171   1.000
    O437    O    0.00140   0.73985   0.06865   1.000
    O438    O    0.99859   0.76017   0.93132   1.000
    O439    O    0.05189   0.74571   0.99829   1.000
    O440    O    0.47241   0.53736   0.01929   1.000
    O441    O    0.52777   0.50491   0.05889   1.000
    O442    O    0.47221   0.49510   0.94111   1.000
    O443    O    0.52757   0.46266   0.98070   1.000
    O444    O    0.47240   0.03735   0.01929   1.000
    O445    O    0.52776   0.00491   0.05889   1.000
    O446    O    0.47221   0.99510   0.94111   1.000
    O447    O    0.52757   0.96266   0.98070   1.000
    O448    O    0.97239   0.53736   0.01929   1.000
    O449    O    0.02776   0.50491   0.05889   1.000
    O450    O    0.97220   0.49510   0.94111   1.000
    O451    O    0.02757   0.46266   0.98070   1.000
    O452    O    0.97240   0.03735   0.01929   1.000
    O453    O    0.02777   0.00491   0.05889   1.000
    O454    O    0.97222   0.99510   0.94111   1.000
    O455    O    0.02759   0.96266   0.98070   1.000
    O456    O    0.44811   0.75431   0.00171   1.000
    O457    O    0.50139   0.73985   0.06865   1.000
    O458    O    0.49859   0.76017   0.93132   1.000
    O459    O    0.55188   0.74571   0.99829   1.000
    O460    O    0.44811   0.25430   0.00171   1.000
    O461    O    0.50139   0.23985   0.06865   1.000
    O462    O    0.49859   0.26016   0.93132   1.000
    O463    O    0.55187   0.24571   0.99825   1.000
    O464    O    0.87727   0.77307   0.02846   1.000
    O465    O    0.87727   0.27307   0.02848   1.000
    O466    O    0.37729   0.77307   0.02848   1.000
    O467    O    0.37728   0.27307   0.02846   1.000
    O468    O    0.35867   0.48307   0.03491   1.000
    O469    O    0.85866   0.98307   0.03491   1.000
    O470    O    0.85866   0.48307   0.03491   1.000
    O471    O    0.35867   0.98307   0.03491   1.000
    O472    O    0.48887   0.36034   0.07683   1.000
    O473    O    0.53216   0.35727   0.99451   1.000
    O474    O    0.48887   0.86034   0.07684   1.000
    O475    O    0.53217   0.85727   0.99453   1.000
    O476    O    0.98887   0.86034   0.07684   1.000
    O477    O    0.03218   0.85727   0.99453   1.000
    O478    O    0.98887   0.36034   0.07684   1.000
    O479    O    0.03217   0.35727   0.99453   1.000
    O480    O    0.44714   0.10163   0.03578   1.000
    O481    O    0.43427   0.14224   0.05566   1.000
    O482    O    0.46781   0.14274   0.00547   1.000
    O483    O    0.44715   0.60163   0.03578   1.000
    O484    O    0.43427   0.64224   0.05563   1.000
    O485    O    0.46781   0.64275   0.00547   1.000
    O486    O    0.94713   0.10163   0.03578   1.000
    O487    O    0.93426   0.14224   0.05566   1.000
    O488    O    0.96780   0.14274   0.00547   1.000
    O489    O    0.94713   0.60163   0.03578   1.000
    O490    O    0.93427   0.64224   0.05566   1.000
    O491    O    0.96780   0.64275   0.00547   1.000
    O492    O    0.83142   0.28377   0.05035   1.000
    O493    O    0.33143   0.78378   0.05035   1.000
    O494    O    0.83142   0.78377   0.05033   1.000
    O495    O    0.33143   0.28377   0.05033   1.000
    O496    O    0.86690   0.80661   0.08350   1.000
    O497    O    0.36690   0.30660   0.08351   1.000
    O498    O    0.86689   0.30660   0.08352   1.000
    O499    O    0.36691   0.80661   0.08352   1.000
    O500    O    0.89351   0.95648   0.06040   1.000
    O501    O    0.83868   0.95478   0.07778   1.000
    O502    O    0.89350   0.45647   0.06040   1.000
    O503    O    0.83868   0.45477   0.07778   1.000
    O504    O    0.39352   0.95648   0.06040   1.000
    O505    O    0.33870   0.95478   0.07778   1.000
    O506    O    0.39351   0.45647   0.06040   1.000
    O507    O    0.33869   0.45477   0.07778   1.000
    O508    O    0.44388   0.91281   0.09744   1.000
    O509    O    0.94387   0.91281   0.09744   1.000
    O510    O    0.94387   0.41281   0.09744   1.000
    O511    O    0.44388   0.41281   0.09744   1.000
    O512    O    0.81138   0.41223   0.14461   1.000
    O513    O    0.81138   0.91224   0.14461   1.000
    O514    O    0.31139   0.91224   0.14461   1.000
    O515    O    0.31139   0.41223   0.14461   1.000
    O516    O    0.34203   0.85276   0.15237   1.000
    O517    O    0.84201   0.35275   0.15237   1.000
    O518    O    0.84202   0.85276   0.15237   1.000
    O519    O    0.34202   0.35275   0.15238   1.000
    O520    O    0.56207   0.49284   0.14872   1.000
    O521    O    0.56207   0.99284   0.14872   1.000
    O522    O    0.06208   0.49284   0.14872   1.000
    O523    O    0.06208   0.99284   0.14872   1.000
    O524    O    0.64914   0.82886   0.15005   1.000
    O525    O    0.14915   0.82886   0.15005   1.000
    O526    O    0.14914   0.32886   0.15005   1.000
    O527    O    0.64913   0.32886   0.15009   1.000
    O528    O    0.50408   0.40130   0.16156   1.000
    O529    O    0.43436   0.38984   0.18885   1.000
    O530    O    0.00408   0.90130   0.16156   1.000
    O531    O    0.93435   0.88985   0.18885   1.000
    O532    O    0.00408   0.40130   0.16156   1.000
    O533    O    0.93434   0.38984   0.18885   1.000
    O534    O    0.50408   0.90130   0.16156   1.000
    O535    O    0.43436   0.88985   0.18885   1.000
    O536    O    0.19737   0.33964   0.15382   1.000
    O537    O    0.26697   0.36109   0.16359   1.000
    O538    O    0.19738   0.83965   0.15382   1.000
    O539    O    0.26697   0.86109   0.16359   1.000
    O540    O    0.69736   0.33964   0.15382   1.000
    O541    O    0.76695   0.36109   0.16359   1.000
    O542    O    0.69737   0.83965   0.15382   1.000
    O543    O    0.76696   0.86109   0.16359   1.000
    O544    O    0.50814   0.24451   0.17210   1.000
    O545    O    0.50814   0.74452   0.17210   1.000
    O546    O    0.00815   0.74452   0.17210   1.000
    O547    O    0.00815   0.24451   0.17210   1.000
    O548    O    0.66211   0.34243   0.21283   1.000
    O549    O    0.66212   0.84244   0.21283   1.000
    O550    O    0.16212   0.34243   0.21283   1.000
    O551    O    0.16213   0.84244   0.21283   1.000
    O552    O    0.55642   0.95044   0.18557   1.000
    O553    O    0.58694   0.98315   0.20501   1.000
    O554    O    0.55642   0.45043   0.18557   1.000
    O555    O    0.58694   0.48314   0.20501   1.000
    O556    O    0.05643   0.95044   0.18557   1.000
    O557    O    0.08695   0.98315   0.20501   1.000
    O558    O    0.05643   0.45043   0.18557   1.000
    O559    O    0.08695   0.48314   0.20501   1.000
    O560    O    0.78374   0.40743   0.23818   1.000
    O561    O    0.28376   0.40743   0.23818   1.000
    O562    O    0.28376   0.90743   0.23818   1.000
    O563    O    0.78375   0.90743   0.23818   1.000
    O564    O    0.01128   0.28717   0.21088   1.000
    O565    O    0.02077   0.24794   0.23758   1.000
    O566    O    0.01128   0.78717   0.21088   1.000
    O567    O    0.02078   0.74794   0.23758   1.000
    O568    O    0.51126   0.28717   0.21088   1.000
    O569    O    0.52076   0.24794   0.23758   1.000
    O570    O    0.51127   0.78717   0.21088   1.000
    O571    O    0.52076   0.74794   0.23758   1.000
    O572    O    0.03383   0.84260   0.26181   1.000
    O573    O    0.53382   0.34260   0.26181   1.000
    O574    O    0.53382   0.84260   0.26181   1.000
    O575    O    0.03383   0.34260   0.26181   1.000
    O576    O    0.77067   0.00206   0.26239   1.000
    O577    O    0.27068   0.50206   0.26239   1.000
    O578    O    0.27068   0.00206   0.26239   1.000
    O579    O    0.77067   0.50206   0.26236   1.000
    O580    O    0.91206   0.90759   0.28717   1.000
    O581    O    0.91206   0.40758   0.28717   1.000
    O582    O    0.41207   0.90759   0.28717   1.000
    O583    O    0.41207   0.40758   0.28717   1.000
    O584    O    0.18438   0.36018   0.31116   1.000
    O585    O    0.68437   0.86019   0.31116   1.000
    O586    O    0.68437   0.36018   0.31116   1.000
    O587    O    0.18438   0.86019   0.31116   1.000
    O588    O    0.33699   0.76681   0.29498   1.000
    O589    O    0.83698   0.26680   0.29498   1.000
    O590    O    0.83698   0.76681   0.29498   1.000
    O591    O    0.33699   0.26680   0.29498   1.000
    O592    O    0.76117   0.46285   0.28906   1.000
    O593    O    0.26118   0.96285   0.28911   1.000
    O594    O    0.76117   0.96285   0.28911   1.000
    O595    O    0.26118   0.46285   0.28911   1.000
    O596    O    0.75811   0.50550   0.32783   1.000
    O597    O    0.75811   0.00550   0.32787   1.000
    O598    O    0.25812   0.00550   0.32787   1.000
    O599    O    0.25812   0.50550   0.32787   1.000
    O600    O    0.80644   0.29955   0.31441   1.000
    O601    O    0.75408   0.34872   0.33843   1.000
    O602    O    0.30645   0.29955   0.31441   1.000
    O603    O    0.25409   0.34872   0.33843   1.000
    O604    O    0.30645   0.79956   0.31441   1.000
    O605    O    0.25410   0.84872   0.33843   1.000
    O606    O    0.80644   0.79956   0.31441   1.000
    O607    O    0.75409   0.84872   0.33843   1.000
    O608    O    0.01695   0.38895   0.33641   1.000
    O609    O    0.09202   0.39730   0.34764   1.000
    O610    O    0.06142   0.33781   0.35538   1.000
    O611    O    0.01695   0.88895   0.33641   1.000
    O612    O    0.09202   0.89731   0.34764   1.000
    O613    O    0.06142   0.83781   0.35538   1.000
    O614    O    0.51695   0.38895   0.33641   1.000
    O615    O    0.59200   0.39730   0.34764   1.000
    O616    O    0.56141   0.33781   0.35538   1.000
    O617    O    0.51695   0.88895   0.33641   1.000
    O618    O    0.59201   0.89731   0.34764   1.000
    O619    O    0.56141   0.83781   0.35538   1.000
    O620    O    0.31210   0.25714   0.35126   1.000
    O621    O    0.81209   0.75715   0.35126   1.000
    O622    O    0.81208   0.25714   0.35126   1.000
    O623    O    0.31210   0.75715   0.35126   1.000
    O624    O    0.44732   0.41039   0.34617   1.000
    O625    O    0.39906   0.42116   0.34991   1.000
    O626    O    0.44732   0.91039   0.34617   1.000
    O627    O    0.39907   0.92116   0.34989   1.000
    O628    O    0.94731   0.41039   0.34617   1.000
    O629    O    0.89905   0.42116   0.34989   1.000
    O630    O    0.94731   0.91039   0.34617   1.000
    O631    O    0.89906   0.92116   0.34992   1.000
    O632    O    0.25140   0.01016   0.43133   1.000
    O633    O    0.25141   0.51017   0.43133   1.000
    O634    O    0.75139   0.01016   0.43133   1.000
    O635    O    0.75139   0.51017   0.43133   1.000
    O636    O    0.69388   0.33724   0.40258   1.000
    O637    O    0.73886   0.38968   0.42314   1.000
    O638    O    0.69389   0.83724   0.40258   1.000
    O639    O    0.73886   0.88969   0.42313   1.000
    O640    O    0.19390   0.83724   0.40258   1.000
    O641    O    0.23887   0.88969   0.42313   1.000
    O642    O    0.19390   0.33724   0.40258   1.000
    O643    O    0.23887   0.38968   0.42313   1.000
    O644    O    0.77777   0.74509   0.44110   1.000
    O645    O    0.77776   0.24508   0.44110   1.000
    O646    O    0.27778   0.74509   0.44110   1.000
    O647    O    0.27778   0.24508   0.44110   1.000
    O648    O    0.11687   0.44352   0.41647   1.000
    O649    O    0.11687   0.94352   0.41647   1.000
    O650    O    0.61686   0.44352   0.41647   1.000
    O651    O    0.61686   0.94352   0.41647   1.000
    O652    O    0.08874   0.29529   0.42224   1.000
    O653    O    0.08874   0.79530   0.42224   1.000
    O654    O    0.58873   0.29529   0.42224   1.000
    O655    O    0.58873   0.79530   0.42224   1.000
    O656    O    0.68426   0.10784   0.44438   1.000
    O657    O    0.18427   0.60784   0.44438   1.000
    O658    O    0.68426   0.60784   0.44438   1.000
    O659    O    0.18427   0.10784   0.44438   1.000
    O660    O    0.64355   0.29360   0.43963   1.000
    O661    O    0.14356   0.79360   0.43963   1.000
    O662    O    0.14356   0.29360   0.43963   1.000
    O663    O    0.64355   0.79360   0.43963   1.000
    O664    O    0.60875   0.76703   0.46516   1.000
    O665    O    0.60874   0.26702   0.46516   1.000
    O666    O    0.10876   0.76703   0.46516   1.000
    O667    O    0.10876   0.26702   0.46516   1.000
    O668    O    0.58138   0.46643   0.44961   1.000
    O669    O    0.62724   0.47711   0.47143   1.000
    O670    O    0.08140   0.96643   0.44961   1.000
    O671    O    0.12725   0.97712   0.47143   1.000
    O672    O    0.58139   0.96644   0.44961   1.000
    O673    O    0.62724   0.97712   0.47143   1.000
    O674    O    0.08140   0.46643   0.44961   1.000
    O675    O    0.12725   0.47711   0.47143   1.000
    O676    O    0.19716   0.14843   0.46423   1.000
    O677    O    0.22242   0.21268   0.48070   1.000
    O678    O    0.69715   0.64844   0.46423   1.000
    O679    O    0.72241   0.71269   0.48070   1.000
    O680    O    0.69715   0.14843   0.46423   1.000
    O681    O    0.72241   0.21268   0.48070   1.000
    O682    O    0.19716   0.64844   0.46423   1.000
    O683    O    0.22243   0.71269   0.48070   1.000
    O684    O    0.21782   0.10729   0.49457   1.000
    O685    O    0.21782   0.60730   0.49457   1.000
    O686    O    0.71781   0.10729   0.49457   1.000
    O687    O    0.71781   0.60730   0.49457   1.000
    O688    O    0.28217   0.89272   0.50542   1.000
    O689    O    0.28217   0.39272   0.50542   1.000
    O690    O    0.78216   0.89272   0.50542   1.000
    O691    O    0.78216   0.39272   0.50543   1.000
    O692    O    0.69808   0.99580   0.49822   1.000
    O693    O    0.19809   0.49580   0.49822   1.000
    O694    O    0.19809   0.99580   0.49822   1.000
    O695    O    0.69808   0.49580   0.49822   1.000
    O696    O    0.80189   0.50421   0.50178   1.000
    O697    O    0.74857   0.48984   0.56867   1.000
    O698    O    0.80189   0.00421   0.50178   1.000
    O699    O    0.74857   0.98984   0.56867   1.000
    O700    O    0.30190   0.50421   0.50178   1.000
    O701    O    0.24858   0.48984   0.56867   1.000
    O702    O    0.30190   0.00421   0.50178   1.000
    O703    O    0.24859   0.98984   0.56867   1.000
    O704    O    0.27757   0.78733   0.51930   1.000
    O705    O    0.22221   0.75493   0.55890   1.000
    O706    O    0.77755   0.28733   0.51930   1.000
    O707    O    0.72220   0.25492   0.55890   1.000
    O708    O    0.27756   0.28733   0.51930   1.000
    O709    O    0.22221   0.25492   0.55890   1.000
    O710    O    0.77756   0.78733   0.51930   1.000
    O711    O    0.72220   0.75493   0.55890   1.000
    O712    O    0.37274   0.02290   0.52857   1.000
    O713    O    0.37274   0.52291   0.52857   1.000
    O714    O    0.87273   0.02290   0.52857   1.000
    O715    O    0.87273   0.52290   0.52857   1.000
    O716    O    0.39123   0.23298   0.53482   1.000
    O717    O    0.39123   0.73299   0.53482   1.000
    O718    O    0.89122   0.73299   0.53485   1.000
    O719    O    0.89122   0.23299   0.53485   1.000
    O720    O    0.76111   0.61033   0.57686   1.000
    O721    O    0.76110   0.11032   0.57686   1.000
    O722    O    0.26112   0.61033   0.57686   1.000
    O723    O    0.26112   0.11032   0.57686   1.000
    O724    O    0.80282   0.85158   0.53577   1.000
    O725    O    0.81571   0.89218   0.55561   1.000
    O726    O    0.80282   0.35158   0.53577   1.000
    O727    O    0.81571   0.39217   0.55561   1.000
    O728    O    0.30283   0.35158   0.53577   1.000
    O729    O    0.31572   0.39217   0.55561   1.000
    O730    O    0.30283   0.85158   0.53577   1.000
    O731    O    0.31572   0.89218   0.55561   1.000
    O732    O    0.91858   0.53359   0.55038   1.000
    O733    O    0.91858   0.03358   0.55038   1.000
    O734    O    0.41859   0.53359   0.55038   1.000
    O735    O    0.41859   0.03358   0.55038   1.000
    O736    O    0.88311   0.55650   0.58354   1.000
    O737    O    0.88310   0.05649   0.58354   1.000
    O738    O    0.38312   0.55650   0.58354   1.000
    O739    O    0.38312   0.05649   0.58354   1.000
    O740    O    0.85642   0.20641   0.56037   1.000
    O741    O    0.91124   0.20471   0.57777   1.000
    O742    O    0.85642   0.70642   0.56037   1.000
    O743    O    0.91124   0.70472   0.57777   1.000
    O744    O    0.35643   0.70642   0.56037   1.000
    O745    O    0.41125   0.70472   0.57777   1.000
    O746    O    0.35643   0.20641   0.56037   1.000
    O747    O    0.41125   0.20471   0.57777   1.000
    O748    O    0.30610   0.66278   0.59742   1.000
    O749    O    0.80608   0.16277   0.59742   1.000
    O750    O    0.80608   0.66278   0.59742   1.000
    O751    O    0.30609   0.16277   0.59742   1.000
    O752    O    0.43857   0.16220   0.64462   1.000
    O753    O    0.43857   0.66221   0.64462   1.000
    O754    O    0.93856   0.16220   0.64462   1.000
    O755    O    0.93856   0.66221   0.64462   1.000
    O756    O    0.90796   0.60271   0.65237   1.000
    O757    O    0.90796   0.10270   0.65237   1.000
    O758    O    0.40797   0.60271   0.65237   1.000
    O759    O    0.40797   0.10271   0.65237   1.000
    O760    O    0.68788   0.74287   0.64874   1.000
    O761    O    0.68788   0.24287   0.64874   1.000
    O762    O    0.18790   0.74287   0.64874   1.000
    O763    O    0.18789   0.24287   0.64874   1.000
    O764    O    0.60091   0.57886   0.65008   1.000
    O765    O    0.60091   0.07885   0.65008   1.000
    O766    O    0.10093   0.57886   0.65008   1.000
    O767    O    0.10092   0.07885   0.65008   1.000
    O768    O    0.24589   0.15129   0.66156   1.000
    O769    O    0.31561   0.13983   0.68883   1.000
    O770    O    0.24590   0.65130   0.66156   1.000
    O771    O    0.31561   0.63983   0.68883   1.000
    O772    O    0.74588   0.15129   0.66156   1.000
    O773    O    0.81559   0.13983   0.68883   1.000
    O774    O    0.74588   0.65130   0.66156   1.000
    O775    O    0.81560   0.63983   0.68883   1.000
    O776    O    0.05267   0.08962   0.65381   1.000
    O777    O    0.98303   0.11106   0.66357   1.000
    O778    O    0.05267   0.58963   0.65383   1.000
    O779    O    0.98303   0.61107   0.66359   1.000
    O780    O    0.55266   0.08962   0.65383   1.000
    O781    O    0.48303   0.11106   0.66359   1.000
    O782    O    0.55266   0.58963   0.65383   1.000
    O783    O    0.48303   0.61107   0.66359   1.000
    O784    O    0.24187   0.49451   0.67213   1.000
    O785    O    0.74186   0.99451   0.67213   1.000
    O786    O    0.74185   0.49451   0.67213   1.000
    O787    O    0.24187   0.99451   0.67213   1.000
    O788    O    0.08792   0.09242   0.71283   1.000
    O789    O    0.08792   0.59243   0.71283   1.000
    O790    O    0.58791   0.09242   0.71283   1.000
    O791    O    0.58791   0.59243   0.71283   1.000
    O792    O    0.69353   0.70046   0.68558   1.000
    O793    O    0.66299   0.73321   0.70501   1.000
    O794    O    0.69352   0.20045   0.68558   1.000
    O795    O    0.66299   0.23321   0.70501   1.000
    O796    O    0.19354   0.70046   0.68558   1.000
    O797    O    0.16300   0.73321   0.70501   1.000
    O798    O    0.19354   0.20045   0.68558   1.000
    O799    O    0.16300   0.23321   0.70501   1.000
    O800    O    0.46616   0.15741   0.73820   1.000
    O801    O    0.46616   0.65742   0.73820   1.000
    O802    O    0.96615   0.15741   0.73820   1.000
    O803    O    0.96615   0.65742   0.73820   1.000
    O804    O    0.73880   0.53717   0.71089   1.000
    O805    O    0.72929   0.49795   0.73760   1.000
    O806    O    0.23881   0.53717   0.71089   1.000
    O807    O    0.22931   0.49795   0.73760   1.000
    O808    O    0.23881   0.03716   0.71089   1.000
    O809    O    0.22931   0.99795   0.73760   1.000
    O810    O    0.73880   0.03716   0.71089   1.000
    O811    O    0.72930   0.99795   0.73760   1.000
    O812    O    0.71622   0.09258   0.76182   1.000
    O813    O    0.71622   0.59259   0.76182   1.000
    O814    O    0.21623   0.09258   0.76182   1.000
    O815    O    0.21623   0.59259   0.76182   1.000
    O816    O    0.97920   0.75208   0.76241   1.000
    O817    O    0.97921   0.25207   0.76241   1.000
    O818    O    0.47921   0.25207   0.76241   1.000
    O819    O    0.47922   0.75208   0.76241   1.000
    O820    O    0.33786   0.15757   0.78715   1.000
    O821    O    0.83785   0.15757   0.78715   1.000
    O822    O    0.33787   0.65758   0.78715   1.000
    O823    O    0.83785   0.65758   0.78715   1.000
    O824    O    0.06563   0.11017   0.81114   1.000
    O825    O    0.06563   0.61017   0.81114   1.000
    O826    O    0.56562   0.11017   0.81114   1.000
    O827    O    0.56562   0.61017   0.81114   1.000
    O828    O    0.41304   0.01687   0.79499   1.000
    O829    O    0.41304   0.51687   0.79499   1.000
    O830    O    0.91302   0.01687   0.79499   1.000
    O831    O    0.91303   0.51687   0.79499   1.000
    O832    O    0.48871   0.21284   0.78912   1.000
    O833    O    0.48871   0.71285   0.78912   1.000
    O834    O    0.98870   0.21284   0.78912   1.000
    O835    O    0.98870   0.71285   0.78912   1.000
    O836    O    0.49184   0.25549   0.82787   1.000
    O837    O    0.99183   0.75550   0.82787   1.000
    O838    O    0.99183   0.25549   0.82787   1.000
    O839    O    0.49184   0.75550   0.82787   1.000
    O840    O    0.94355   0.54958   0.81443   1.000
    O841    O    0.99590   0.59871   0.83843   1.000
    O842    O    0.94355   0.04958   0.81443   1.000
    O843    O    0.99590   0.09871   0.83843   1.000
    O844    O    0.44356   0.54958   0.81443   1.000
    O845    O    0.49590   0.59871   0.83843   1.000
    O846    O    0.44356   0.04957   0.81443   1.000
    O847    O    0.49590   0.09871   0.83843   1.000
    O848    O    0.23302   0.13892   0.83641   1.000
    O849    O    0.15796   0.14726   0.84762   1.000
    O850    O    0.18860   0.08777   0.85539   1.000
    O851    O    0.23303   0.63893   0.83641   1.000
    O852    O    0.15797   0.64726   0.84762   1.000
    O853    O    0.18860   0.58778   0.85539   1.000
    O854    O    0.73301   0.13892   0.83638   1.000
    O855    O    0.65795   0.14726   0.84762   1.000
    O856    O    0.68858   0.08777   0.85539   1.000
    O857    O    0.73301   0.63893   0.83641   1.000
    O858    O    0.65795   0.64726   0.84762   1.000
    O859    O    0.68859   0.58778   0.85539   1.000
    O860    O    0.93790   0.50718   0.85128   1.000
    O861    O    0.93790   0.00718   0.85128   1.000
    O862    O    0.43791   0.50718   0.85128   1.000
    O863    O    0.43791   0.00718   0.85128   1.000
    O864    O    0.80260   0.16037   0.84613   1.000
    O865    O    0.85083   0.17115   0.84989   1.000
    O866    O    0.30261   0.16037   0.84617   1.000
    O867    O    0.35084   0.17115   0.84989   1.000
    O868    O    0.30262   0.66037   0.84617   1.000
    O869    O    0.35085   0.67116   0.84989   1.000
    O870    O    0.80260   0.66037   0.84617   1.000
    O871    O    0.85083   0.67116   0.84989   1.000
    O872    O    0.05611   0.08720   0.90255   1.000
    O873    O    0.01111   0.13967   0.92316   1.000
    O874    O    0.05611   0.58721   0.90255   1.000
    O875    O    0.01111   0.63968   0.92316   1.000
    O876    O    0.55610   0.08720   0.90255   1.000
    O877    O    0.51111   0.13967   0.92316   1.000
    O878    O    0.55610   0.58721   0.90255   1.000
    O879    O    0.51111   0.63968   0.92316   1.000
    O880    O    0.63307   0.69341   0.91647   1.000
    O881    O    0.63307   0.19340   0.91647   1.000
    O882    O    0.13309   0.69341   0.91647   1.000
    O883    O    0.13308   0.19340   0.91647   1.000
    O884    O    0.66128   0.04523   0.92222   1.000
    O885    O    0.16130   0.54524   0.92222   1.000
    O886    O    0.66129   0.54524   0.92222   1.000
    O887    O    0.16130   0.04523   0.92222   1.000
    O888    O    0.56570   0.35777   0.94434   1.000
    O889    O    0.06571   0.35777   0.94434   1.000
    O890    O    0.06572   0.85777   0.94434   1.000
    O891    O    0.56571   0.85777   0.94434   1.000
    O892    O    0.60646   0.04354   0.93959   1.000
    O893    O    0.60646   0.54354   0.93959   1.000
    O894    O    0.10648   0.54354   0.93959   1.000
    O895    O    0.10647   0.04354   0.93959   1.000
    O896    O    0.64131   0.51694   0.96508   1.000
    O897    O    0.64131   0.01694   0.96508   1.000
    O898    O    0.14132   0.51694   0.96508   1.000
    O899    O    0.14132   0.01694   0.96508   1.000
    O900    O    0.66855   0.71624   0.94964   1.000
    O901    O    0.62270   0.72695   0.97152   1.000
    O902    O    0.66855   0.21624   0.94964   1.000
    O903    O    0.62269   0.22694   0.97148   1.000
    O904    O    0.16856   0.71624   0.94964   1.000
    O905    O    0.12271   0.72695   0.97152   1.000
    O906    O    0.16856   0.21624   0.94964   1.000
    O907    O    0.12270   0.22694   0.97152   1.000
    O908    O    0.05284   0.39838   0.96422   1.000
    O909    O    0.05285   0.89839   0.96422   1.000
    O910    O    0.55283   0.39838   0.96422   1.000
    O911    O    0.55284   0.89839   0.96422   1.000
    O912    O    0.35669   0.39096   0.21864   1.000
    O913    O    0.35669   0.89097   0.21864   1.000
    O914    O    0.85668   0.39096   0.21864   1.000
    O915    O    0.85668   0.89097   0.21864   1.000
    O916    O    0.98648   0.34629   0.17326   1.000
    O917    O    0.98648   0.84630   0.17326   1.000
    O918    O    0.48648   0.34629   0.17326   1.000
    O919    O    0.48648   0.84630   0.17326   1.000
    O920    O    0.41969   0.35163   0.12259   1.000
    O921    O    0.41969   0.85163   0.12258   1.000
    O922    O    0.91968   0.35163   0.12258   1.000
    O923    O    0.91968   0.85163   0.12258   1.000
    O924    O    0.05143   0.39760   0.25011   1.000
    O925    O    0.05143   0.89761   0.25011   1.000
    O926    O    0.55142   0.39760   0.25011   1.000
    O927    O    0.55142   0.89761   0.25011   1.000
    O928    O    0.00692   0.29654   0.01102   1.000
    O929    O    0.00692   0.79655   0.01102   1.000
    O930    O    0.50690   0.29654   0.01100   1.000
    O931    O    0.50691   0.79655   0.01102   1.000
    O932    O    0.46192   0.47402   0.03161   1.000
    O933    O    0.46192   0.97402   0.03161   1.000
    O934    O    0.96191   0.47402   0.03161   1.000
    O935    O    0.96192   0.97402   0.03161   1.000
    O936    O    0.10673   0.35906   0.28136   1.000
    O937    O    0.10673   0.85906   0.28136   1.000
    O938    O    0.60671   0.35906   0.28136   1.000
    O939    O    0.60672   0.85906   0.28136   1.000
    O940    O    0.23642   0.40373   0.32674   1.000
    O941    O    0.23643   0.90374   0.32674   1.000
    O942    O    0.73641   0.40373   0.32674   1.000
    O943    O    0.73641   0.90374   0.32674   1.000
    O944    O    0.16967   0.39842   0.37744   1.000
    O945    O    0.16968   0.89843   0.37744   1.000
    O946    O    0.66966   0.39842   0.37744   1.000
    O947    O    0.66966   0.89843   0.37744   1.000
    O948    O    0.30143   0.35241   0.24987   1.000
    O949    O    0.30143   0.85242   0.24987   1.000
    O950    O    0.80142   0.35241   0.24987   1.000
    O951    O    0.80142   0.85242   0.24987   1.000
    O952    O    0.25691   0.45347   0.48895   1.000
    O953    O    0.25691   0.95347   0.48895   1.000
    O954    O    0.75690   0.45347   0.48896   1.000
    O955    O    0.75690   0.95347   0.48895   1.000
    O956    O    0.21193   0.27602   0.46840   1.000
    O957    O    0.21194   0.77602   0.46840   1.000
    O958    O    0.71192   0.27602   0.46840   1.000
    O959    O    0.71192   0.77602   0.46840   1.000
    O960    O    0.14330   0.10904   0.78136   1.000
    O961    O    0.14330   0.60905   0.78136   1.000
    O962    O    0.64329   0.10904   0.78136   1.000
    O963    O    0.64329   0.60905   0.78136   1.000
    O964    O    0.51350   0.15372   0.82674   1.000
    O965    O    0.51350   0.65372   0.82674   1.000
    O966    O    0.01350   0.15372   0.82674   1.000
    O967    O    0.01350   0.65372   0.82674   1.000
    O968    O    0.08030   0.14838   0.87741   1.000
    O969    O    0.08030   0.64839   0.87741   1.000
    O970    O    0.58028   0.14838   0.87741   1.000
    O971    O    0.58029   0.64839   0.87741   1.000
    O972    O    0.44856   0.10240   0.74989   1.000
    O973    O    0.44856   0.60241   0.74989   1.000
    O974    O    0.94855   0.10240   0.74989   1.000
    O975    O    0.94855   0.60241   0.74989   1.000
    O976    O    0.49307   0.20346   0.98899   1.000
    O977    O    0.49308   0.70347   0.98899   1.000
    O978    O    0.99307   0.20346   0.98899   1.000
    O979    O    0.99308   0.70347   0.98899   1.000
    O980    O    0.03807   0.02599   0.96838   1.000
    O981    O    0.03806   0.52599   0.96838   1.000
    O982    O    0.53806   0.02599   0.96838   1.000
    O983    O    0.53806   0.52599   0.96838   1.000
    O984    O    0.39326   0.14095   0.71864   1.000
    O985    O    0.39327   0.64096   0.71864   1.000
    O986    O    0.89325   0.14095   0.71864   1.000
    O987    O    0.89325   0.64096   0.71864   1.000
    O988    O    0.26357   0.09628   0.67326   1.000
    O989    O    0.26357   0.59628   0.67326   1.000
    O990    O    0.76355   0.09628   0.67326   1.000
    O991    O    0.76356   0.59628   0.67326   1.000
    O992    O    0.33031   0.10158   0.62256   1.000
    O993    O    0.33032   0.60159   0.62256   1.000
    O994    O    0.83030   0.10158   0.62256   1.000
    O995    O    0.83031   0.60159   0.62256   1.000
    O996    O    0.19856   0.14759   0.75012   1.000
    O997    O    0.19856   0.64760   0.75012   1.000
    O998    O    0.69855   0.14759   0.75012   1.000
    O999    O    0.69855   0.64760   0.75012   1.000
    O1000   O    0.24308   0.04654   0.51104   1.000
    O1001   O    0.24308   0.54655   0.51104   1.000
    O1002   O    0.74307   0.04654   0.51104   1.000
    O1003   O    0.74307   0.54655   0.51104   1.000
    O1004   O    0.28805   0.22399   0.53160   1.000
    O1005   O    0.28806   0.72400   0.53160   1.000
    O1006   O    0.78804   0.22399   0.53160   1.000
    O1007   O    0.78805   0.72400   0.53160   1.000
loop_
    _geom_bond_atom_site_label_1
    _geom_bond_atom_site_label_2
    _geom_bond_distance
    _geom_bond_site_symmetry_2
    _ccdc_geom_bond_type
    C32    O432      1.05369  1_455   S
    C262   O432      1.05369      .   S
    C32    O433      1.05723      .   S
    C252   O433      1.05723      .   S
    C32    O434      1.05768  1_454   S
    C350   O434      1.05768      .   S
    C32    O435      1.05343  1_554   S
    C356   O435      1.05343      .   S
    C33    O436      1.05369  1_455   S
    C263   O436      1.05369      .   S
    C33    O437      1.05723      .   S
    C253   O437      1.05723      .   S
    C33    O438      1.05768  1_454   S
    C351   O438      1.05768      .   S
    C33    O439      1.05342  1_554   S
    C357   O439      1.05342      .   S
    C43    O440      1.05937      .   S
    C373   O440      1.05937      .   S
    C43    O441      1.04800      .   S
    C271   O441      1.04800      .   S
    C43    O442      1.04795  1_554   S
    C364   O442      1.04795      .   S
    C43    O443      1.05932  1_554   S
    C278   O443      1.05932      .   S
    C42    O444      1.05937      .   S
    C372   O444      1.05937      .   S
    C42    O445      1.04800      .   S
    C270   O445      1.04800      .   S
    C42    O446      1.04791  1_544   S
    C365   O446      1.04791      .   S
    C42    O447      1.05925  1_544   S
    C279   O447      1.05925      .   S
    C41    O448      1.05936      .   S
    C375   O448      1.05936      .   S
    C41    O449      1.04813  1_655   S
    C269   O449      1.04813      .   S
    C41    O450      1.04795  1_554   S
    C366   O450      1.04795      .   S
    C41    O451      1.05945  1_654   S
    C276   O451      1.05945      .   S
    C40    O452      1.05949  1_455   S
    C374   O452      1.05949      .   S
    C40    O453      1.04800      .   S
    C268   O453      1.04800      .   S
    C40    O454      1.04803  1_444   S
    C367   O454      1.04803      .   S
    C40    O455      1.05925  1_544   S
    C277   O455      1.05925      .   S
    C35    O456      1.05346      .   S
    C261   O456      1.05346      .   S
    C35    O457      1.05723      .   S
    C255   O457      1.05723      .   S
    C35    O458      1.05767  1_554   S
    C349   O458      1.05767      .   S
    C35    O459      1.05343  1_554   S
    C359   O459      1.05343      .   S
    C34    O460      1.05346      .   S
    C260   O460      1.05346      .   S
    C34    O461      1.05723      .   S
    C254   O461      1.05723      .   S
    C34    O462      1.05767  1_554   S
    C348   O462      1.05767      .   S
    C34    O463      1.05343  1_554   S
    C358   O463      1.05343      .   S
    C263   O464      0.62617      .   S
    C155   O464      0.62617      .   S
    C262   O465      0.62635      .   S
    C154   O465      0.62635      .   S
    C261   O466      0.62635      .   S
    C153   O466      0.62635      .   S
    C260   O467      0.62618      .   S
    C152   O467      0.62618      .   S
    C69    O468      0.55103      .   S
    C164   O468      0.55103      .   S
    C70    O469      0.55093  1_545   S
    C167   O469      0.55093      .   S
    C71    O470      0.55103      .   S
    C166   O470      0.55103      .   S
    C68    O471      0.55093  1_545   S
    C165   O471      0.55093      .   S
    C274   O472      1.03413      .   S
    C0     O472      1.03413      .   S
    C274   O473      0.64697  1_554   S
    C162   O473      0.64697      .   S
    C275   O474      1.03396      .   S
    C1     O474      1.03396      .   S
    C275   O475      0.64712  1_554   S
    C163   O475      0.64712      .   S
    C273   O476      1.03408  1_455   S
    C3     O476      1.03408      .   S
    C273   O477      0.64713  1_554   S
    C161   O477      0.64713      .   S
    C272   O478      1.03407  1_455   S
    C2     O478      1.03407      .   S
    C272   O479      0.64712  1_554   S
    C160   O479      0.64712      .   S
    C208   O480      0.62403      .   S
    C372   O480      0.62403      .   S
    C208   O481      0.55129      .   S
    C112   O481      0.55129      .   S
    C208   O482      0.64708      .   S
    C368   O482      0.64708  1_556   S
    C209   O483      0.62403      .   S
    C373   O483      0.62403      .   S
    C209   O484      0.55107      .   S
    C113   O484      0.55107      .   S
    C209   O485      0.64708      .   S
    C369   O485      0.64708  1_556   S
    C210   O486      0.62403      .   S
    C374   O486      0.62403      .   S
    C210   O487      0.55132      .   S
    C114   O487      0.55132      .   S
    C210   O488      0.64707      .   S
    C370   O488      0.64707  1_556   S
    C211   O489      0.62403      .   S
    C375   O489      0.62403      .   S
    C211   O490      0.55132      .   S
    C115   O490      0.55132      .   S
    C211   O491      0.64708      .   S
    C371   O491      0.64708  1_556   S
    C58    O492      0.55288      .   S
    C154   O492      0.55288      .   S
    C57    O493      0.55288      .   S
    C153   O493      0.55288      .   S
    C59    O494      0.55287      .   S
    C155   O494      0.55287      .   S
    C56    O495      0.55287      .   S
    C152   O495      0.55287      .   S
    C155   O496      0.64465      .   S
    C259   O496      0.64465      .   S
    C152   O497      0.64475      .   S
    C256   O497      0.64475      .   S
    C154   O498      0.64443      .   S
    C258   O498      0.64443      .   S
    C153   O499      0.64444      .   S
    C257   O499      0.64444      .   S
    C167   O500      0.64454      .   S
    C283   O500      0.64454      .   S
    C167   O501      0.62748      .   S
    C287   O501      0.62748      .   S
    C166   O502      0.64453      .   S
    C282   O502      0.64453      .   S
    C166   O503      0.62748      .   S
    C286   O503      0.62748      .   S
    C165   O504      0.64453      .   S
    C281   O504      0.64453      .   S
    C165   O505      0.62749      .   S
    C285   O505      0.62749      .   S
    C164   O506      0.64454      .   S
    C280   O506      0.64454      .   S
    C164   O507      0.62748      .   S
    C284   O507      0.62748      .   S
    C281   O508      1.04860      .   S
    C1     O508      1.04860      .   S
    C283   O509      1.04860      .   S
    C3     O509      1.04860      .   S
    C282   O510      1.04860      .   S
    C2     O510      1.04860      .   S
    C280   O511      1.04860      .   S
    C0     O511      1.04860      .   S
    C286   O512      1.03288      .   S
    C14    O512      1.03288      .   S
    C287   O513      1.03288      .   S
    C15    O513      1.03288      .   S
    C285   O514      1.03288      .   S
    C13    O514      1.03288      .   S
    C284   O515      1.03288      .   S
    C12    O515      1.03288      .   S
    C257   O516      1.08032      .   S
    C13    O516      1.08032      .   S
    C258   O517      1.08031      .   S
    C14    O517      1.08031      .   S
    C259   O518      1.08032      .   S
    C15    O518      1.08032      .   S
    C256   O519      1.08025      .   S
    C12    O519      1.08025      .   S
    C271   O520      0.62566      .   S
    C158   O520      0.62566      .   S
    C270   O521      0.62559  1_545   S
    C159   O521      0.62559      .   S
    C269   O522      0.62566      .   S
    C156   O522      0.62566      .   S
    C268   O523      0.62559  1_545   S
    C157   O523      0.62559      .   S
    C75    O524      0.55194      .   S
    C171   O524      0.55194      .   S
    C73    O525      0.55195      .   S
    C169   O525      0.55195      .   S
    C72    O526      0.55195      .   S
    C168   O526      0.55195      .   S
    C74    O527      0.55159      .   S
    C170   O527      0.55159      .   S
    C0     O528      1.07111      .   S
    C266   O528      1.07111      .   S
    C0     O529      1.07550      .   S
    C240   O529      1.07550      .   S
    C3     O530      1.07130  1_655   S
    C265   O530      1.07130      .   S
    C3     O531      1.07550      .   S
    C243   O531      1.07550      .   S
    C2     O532      1.07130  1_655   S
    C264   O532      1.07130      .   S
    C2     O533      1.07549      .   S
    C242   O533      1.07549      .   S
    C1     O534      1.07112      .   S
    C267   O534      1.07112      .   S
    C1     O535      1.07550      .   S
    C241   O535      1.07550      .   S
    C292   O536      0.62895      .   S
    C168   O536      0.62895      .   S
    C292   O537      1.02852      .   S
    C12    O537      1.02852      .   S
    C293   O538      0.62895      .   S
    C169   O538      0.62895      .   S
    C293   O539      1.02853      .   S
    C13    O539      1.02853      .   S
    C294   O540      0.62895      .   S
    C170   O540      0.62895      .   S
    C294   O541      1.02852      .   S
    C14    O541      1.02852      .   S
    C295   O542      0.62895      .   S
    C171   O542      0.62895      .   S
    C295   O543      1.02852      .   S
    C15    O543      1.02852      .   S
    C254   O544      0.62555      .   S
    C150   O544      0.62555      .   S
    C255   O545      0.62555      .   S
    C151   O545      0.62555      .   S
    C253   O546      0.62555      .   S
    C149   O546      0.62555      .   S
    C252   O547      0.62555      .   S
    C148   O547      0.62555      .   S
    C170   O548      0.64200      .   S
    C290   O548      0.64200      .   S
    C171   O549      0.64200      .   S
    C291   O549      0.64200      .   S
    C168   O550      0.64200      .   S
    C288   O550      0.64200      .   S
    C169   O551      0.64200      .   S
    C289   O551      0.64200      .   S
    C159   O552      0.64289      .   S
    C267   O552      0.64289      .   S
    C159   O553      0.55365      .   S
    C63    O553      0.55365      .   S
    C158   O554      0.64289      .   S
    C266   O554      0.64289      .   S
    C158   O555      0.55365      .   S
    C62    O555      0.55365      .   S
    C157   O556      0.64289      .   S
    C265   O556      0.64289      .   S
    C157   O557      0.55364      .   S
    C61    O557      0.55364      .   S
    C156   O558      0.64289      .   S
    C264   O558      0.64289      .   S
    C156   O559      0.55365      .   S
    C60    O559      0.55365      .   S
    C14    O560      1.06227      .   S
    C298   O560      1.06227      .   S
    C12    O561      1.06227      .   S
    C296   O561      1.06227      .   S
    C13    O562      1.06226      .   S
    C297   O562      1.06226      .   S
    C15    O563      1.06227      .   S
    C299   O563      1.06227      .   S
    C148   O564      0.64380      .   S
    C248   O564      0.64380      .   S
    C148   O565      0.55285      .   S
    C52    O565      0.55285      .   S
    C149   O566      0.64380      .   S
    C249   O566      0.64380      .   S
    C149   O567      0.55285      .   S
    C53    O567      0.55285      .   S
    C150   O568      0.64380      .   S
    C250   O568      0.64380      .   S
    C150   O569      0.55285      .   S
    C54    O569      0.55285      .   S
    C151   O570      0.64380      .   S
    C251   O570      0.64380      .   S
    C151   O571      0.55285      .   S
    C55    O571      0.55285      .   S
    C249   O572      1.06244      .   S
    C5     O572      1.06244      .   S
    C250   O573      1.06244      .   S
    C6     O573      1.06244      .   S
    C251   O574      1.06244      .   S
    C7     O574      1.06244      .   S
    C248   O575      1.06244      .   S
    C4     O575      1.06244      .   S
    C78    O576      0.55280      .   S
    C175   O576      0.55280  1_565   S
    C77    O577      0.55288      .   S
    C172   O577      0.55288      .   S
    C76    O578      0.55280      .   S
    C173   O578      0.55280  1_565   S
    C79    O579      0.55226      .   S
    C174   O579      0.55226      .   S
    C243   O580      0.64177      .   S
    C147   O580      0.64177      .   S
    C242   O581      0.64177      .   S
    C146   O581      0.64177      .   S
    C241   O582      0.64177      .   S
    C145   O582      0.64177      .   S
    C240   O583      0.64177      .   S
    C144   O583      0.64177      .   S
    C288   O584      1.07556      .   S
    C8     O584      1.07556      .   S
    C291   O585      1.07556      .   S
    C11    O585      1.07556      .   S
    C290   O586      1.07556      .   S
    C10    O586      1.07556      .   S
    C289   O587      1.07556      .   S
    C9     O587      1.07556      .   S
    C85    O588      0.55366      .   S
    C181   O588      0.55366      .   S
    C86    O589      0.55365      .   S
    C182   O589      0.55365      .   S
    C87    O590      0.55366      .   S
    C183   O590      0.55366      .   S
    C84    O591      0.55365      .   S
    C180   O591      0.55365      .   S
    C298   O592      0.64373      .   S
    C174   O592      0.64373      .   S
    C297   O593      0.64378      .   S
    C173   O593      0.64378      .   S
    C299   O594      0.64378      .   S
    C175   O594      0.64378      .   S
    C296   O595      0.64378      .   S
    C172   O595      0.64378      .   S
    C174   O596      0.62572      .   S
    C303   O596      0.62572      .   S
    C175   O597      0.62510  1_565   S
    C302   O597      0.62510      .   S
    C173   O598      0.62510  1_565   S
    C300   O598      0.62510      .   S
    C172   O599      0.62517      .   S
    C301   O599      0.62517      .   S
    C314   O600      0.64294      .   S
    C182   O600      0.64294      .   S
    C314   O601      1.07087      .   S
    C10    O601      1.07087      .   S
    C312   O602      0.64293      .   S
    C180   O602      0.64293      .   S
    C312   O603      1.07087      .   S
    C8     O603      1.07087      .   S
    C313   O604      0.64292      .   S
    C181   O604      0.64292      .   S
    C313   O605      1.07087      .   S
    C9     O605      1.07087      .   S
    C315   O606      0.64293      .   S
    C183   O606      0.64293      .   S
    C315   O607      1.07087      .   S
    C11    O607      1.07087      .   S
    C4     O608      1.02856      .   S
    C246   O608      1.02856  1_655   S
    C4     O609      1.08116      .   S
    C304   O609      1.08116      .   S
    C4     O610      1.03259      .   S
    C332   O610      1.03259      .   S
    C5     O611      1.02855      .   S
    C247   O611      1.02855  1_655   S
    C5     O612      1.08116      .   S
    C305   O612      1.08116      .   S
    C5     O613      1.03259      .   S
    C333   O613      1.03259      .   S
    C6     O614      1.02837      .   S
    C244   O614      1.02837      .   S
    C6     O615      1.08115      .   S
    C306   O615      1.08115      .   S
    C6     O616      1.03259      .   S
    C334   O616      1.03259      .   S
    C7     O617      1.02836      .   S
    C245   O617      1.02836      .   S
    C7     O618      1.08116      .   S
    C307   O618      1.08116      .   S
    C7     O619      1.03259      .   S
    C335   O619      1.03259      .   S
    C180   O620      0.62570      .   S
    C316   O620      0.62570      .   S
    C183   O621      0.62570      .   S
    C319   O621      0.62570      .   S
    C182   O622      0.62569      .   S
    C318   O622      0.62569      .   S
    C181   O623      0.62569      .   S
    C317   O623      0.62569      .   S
    C144   O624      0.62908      .   S
    C244   O624      0.62908      .   S
    C144   O625      0.55172      .   S
    C48    O625      0.55172      .   S
    C145   O626      0.62909      .   S
    C245   O626      0.62909      .   S
    C145   O627      0.55151      .   S
    C49    O627      0.55151      .   S
    C146   O628      0.62909      .   S
    C246   O628      0.62909      .   S
    C146   O629      0.55150      .   S
    C50    O629      0.55150      .   S
    C147   O630      0.62909      .   S
    C247   O630      0.62909      .   S
    C147   O631      0.55177      .   S
    C51    O631      0.55177      .   S
    C300   O632      1.05757      .   S
    C36    O632      1.05757      .   S
    C301   O633      1.05757      .   S
    C37    O633      1.05757      .   S
    C302   O634      1.05757      .   S
    C38    O634      1.05757      .   S
    C303   O635      1.05757      .   S
    C39    O635      1.05757      .   S
    C10    O636      1.04877      .   S
    C330   O636      1.04877      .   S
    C10    O637      1.03393      .   S
    C322   O637      1.03393      .   S
    C11    O638      1.04877      .   S
    C331   O638      1.04877      .   S
    C11    O639      1.03380      .   S
    C323   O639      1.03380      .   S
    C9     O640      1.04877      .   S
    C329   O640      1.04877      .   S
    C9     O641      1.03380      .   S
    C321   O641      1.03380      .   S
    C8     O642      1.04877      .   S
    C328   O642      1.04877      .   S
    C8     O643      1.03380      .   S
    C320   O643      1.03380      .   S
    C319   O644      1.04808      .   S
    C47    O644      1.04808      .   S
    C318   O645      1.04808      .   S
    C46    O645      1.04808      .   S
    C317   O646      1.04808      .   S
    C45    O646      1.04808      .   S
    C316   O647      1.04808      .   S
    C44    O647      1.04808      .   S
    C304   O648      0.64456      .   S
    C176   O648      0.64456      .   S
    C305   O649      0.64455      .   S
    C177   O649      0.64455      .   S
    C306   O650      0.64456      .   S
    C178   O650      0.64456      .   S
    C307   O651      0.64456      .   S
    C179   O651      0.64456      .   S
    C332   O652      0.62749      .   S
    C188   O652      0.62749      .   S
    C333   O653      0.62749      .   S
    C189   O653      0.62749      .   S
    C334   O654      0.62748      .   S
    C190   O654      0.62748      .   S
    C335   O655      0.62749      .   S
    C191   O655      0.62749      .   S
    C138   O656      0.55131      .   S
    C234   O656      0.55131      .   S
    C137   O657      0.55131      .   S
    C233   O657      0.55131      .   S
    C139   O658      0.55131      .   S
    C235   O658      0.55131      .   S
    C136   O659      0.55131      .   S
    C232   O659      0.55131      .   S
    C330   O660      0.64453      .   S
    C190   O660      0.64453      .   S
    C329   O661      0.64453      .   S
    C189   O661      0.64453      .   S
    C328   O662      0.64453      .   S
    C188   O662      0.64453      .   S
    C331   O663      0.64453      .   S
    C191   O663      0.64453      .   S
    C191   O664      0.55100      .   S
    C95    O664      0.55100      .   S
    C190   O665      0.55100      .   S
    C94    O665      0.55100      .   S
    C189   O666      0.55100      .   S
    C93    O666      0.55100      .   S
    C188   O667      0.55100      .   S
    C92    O667      0.55100      .   S
    C178   O668      0.55291      .   S
    C82    O668      0.55291      .   S
    C178   O669      0.62640      .   S
    C310   O669      0.62640      .   S
    C177   O670      0.55291      .   S
    C81    O670      0.55291      .   S
    C177   O671      0.62640      .   S
    C309   O671      0.62640      .   S
    C179   O672      0.55291      .   S
    C83    O672      0.55291      .   S
    C179   O673      0.62640      .   S
    C311   O673      0.62640      .   S
    C176   O674      0.55291      .   S
    C80    O674      0.55291      .   S
    C176   O675      0.62640      .   S
    C308   O675      0.62640      .   S
    C420   O676      0.62402      .   S
    C232   O676      0.62402      .   S
    C420   O677      1.05956      .   S
    C44    O677      1.05956      .   S
    C423   O678      0.62402      .   S
    C235   O678      0.62402      .   S
    C423   O679      1.05956      .   S
    C47    O679      1.05956      .   S
    C422   O680      0.62402      .   S
    C234   O680      0.62402      .   S
    C422   O681      1.05955      .   S
    C46    O681      1.05955      .   S
    C421   O682      0.62402      .   S
    C233   O682      0.62402      .   S
    C421   O683      1.05956      .   S
    C45    O683      1.05956      .   S
    C232   O684      0.64720      .   S
    C416   O684      0.64720      .   S
    C233   O685      0.64720      .   S
    C417   O685      0.64720      .   S
    C234   O686      0.64719      .   S
    C418   O686      0.64719      .   S
    C235   O687      0.64720      .   S
    C419   O687      0.64720      .   S
    C321   O688      0.64730      .   S
    C185   O688      0.64730      .   S
    C320   O689      0.64730      .   S
    C184   O689      0.64730      .   S
    C323   O690      0.64730      .   S
    C187   O690      0.64730      .   S
    C322   O691      0.64720      .   S
    C186   O691      0.64720      .   S
    C311   O692      1.05384      .   S
    C38    O692      1.05384  1_545   S
    C308   O693      1.05391      .   S
    C37    O693      1.05391      .   S
    C309   O694      1.05385      .   S
    C36    O694      1.05385  1_545   S
    C310   O695      1.05392      .   S
    C39    O695      1.05392      .   S
    C39    O696      1.05391      .   S
    C407   O696      1.05391      .   S
    C39    O697      1.05757      .   S
    C398   O697      1.05757      .   S
    C38    O698      1.05391      .   S
    C406   O698      1.05391      .   S
    C38    O699      1.05753  1_545   S
    C399   O699      1.05753      .   S
    C37    O700      1.05392      .   S
    C405   O700      1.05392      .   S
    C37    O701      1.05757      .   S
    C396   O701      1.05757      .   S
    C36    O702      1.05391      .   S
    C404   O702      1.05391      .   S
    C36    O703      1.05753  1_545   S
    C397   O703      1.05753      .   S
    C45    O704      1.05956      .   S
    C325   O704      1.05956      .   S
    C45    O705      1.04808      .   S
    C413   O705      1.04808      .   S
    C46    O706      1.05957      .   S
    C326   O706      1.05957      .   S
    C46    O707      1.04808      .   S
    C414   O707      1.04808      .   S
    C44    O708      1.05956      .   S
    C324   O708      1.05956      .   S
    C44    O709      1.04808      .   S
    C412   O709      1.04808      .   S
    C47    O710      1.05957      .   S
    C327   O710      1.05957      .   S
    C47    O711      1.04808      .   S
    C415   O711      1.04808      .   S
    C404   O712      0.62640      .   S
    C224   O712      0.62640      .   S
    C405   O713      0.62640      .   S
    C225   O713      0.62640      .   S
    C406   O714      0.62640      .   S
    C226   O714      0.62640      .   S
    C407   O715      0.62640      .   S
    C227   O715      0.62640      .   S
    C140   O716      0.55127      .   S
    C236   O716      0.55127      .   S
    C141   O717      0.55128      .   S
    C237   O717      0.55128      .   S
    C143   O718      0.55100      .   S
    C239   O718      0.55100      .   S
    C142   O719      0.55100      .   S
    C238   O719      0.55100      .   S
    C419   O720      1.03392      .   S
    C27    O720      1.03392      .   S
    C418   O721      1.03392      .   S
    C26    O721      1.03392      .   S
    C417   O722      1.03392      .   S
    C25    O722      1.03392      .   S
    C416   O723      1.03392      .   S
    C24    O723      1.03392      .   S
    C187   O724      0.62401      .   S
    C327   O724      0.62401      .   S
    C187   O725      0.55132      .   S
    C91    O725      0.55132      .   S
    C186   O726      0.62401      .   S
    C326   O726      0.62401      .   S
    C186   O727      0.55132      .   S
    C90    O727      0.55132      .   S
    C184   O728      0.62401      .   S
    C324   O728      0.62401      .   S
    C184   O729      0.55132      .   S
    C88    O729      0.55132      .   S
    C185   O730      0.62401      .   S
    C325   O730      0.62401      .   S
    C185   O731      0.55132      .   S
    C89    O731      0.55132      .   S
    C131   O732      0.55291      .   S
    C227   O732      0.55291      .   S
    C130   O733      0.55291      .   S
    C226   O733      0.55291      .   S
    C129   O734      0.55291      .   S
    C225   O734      0.55291      .   S
    C128   O735      0.55292      .   S
    C224   O735      0.55292      .   S
    C227   O736      0.64461      .   S
    C403   O736      0.64461      .   S
    C226   O737      0.64461      .   S
    C402   O737      0.64461      .   S
    C225   O738      0.64460      .   S
    C401   O738      0.64460      .   S
    C224   O739      0.64460      .   S
    C400   O739      0.64460      .   S
    C238   O740      0.64452      .   S
    C426   O740      0.64452      .   S
    C238   O741      0.62746      .   S
    C430   O741      0.62746      .   S
    C239   O742      0.64453      .   S
    C427   O742      0.64453      .   S
    C239   O743      0.62746      .   S
    C431   O743      0.62746      .   S
    C237   O744      0.64453      .   S
    C425   O744      0.64453      .   S
    C237   O745      0.62745      .   S
    C429   O745      0.62745      .   S
    C236   O746      0.64453      .   S
    C424   O746      0.64453      .   S
    C236   O747      0.62745      .   S
    C428   O747      0.62745      .   S
    C425   O748      1.04877      .   S
    C25    O748      1.04877      .   S
    C426   O749      1.04877      .   S
    C26    O749      1.04877      .   S
    C427   O750      1.04877      .   S
    C27    O750      1.04877      .   S
    C424   O751      1.04877      .   S
    C24    O751      1.04877      .   S
    C428   O752      1.03259      .   S
    C20    O752      1.03259      .   S
    C429   O753      1.03259      .   S
    C21    O753      1.03259      .   S
    C430   O754      1.03259      .   S
    C22    O754      1.03259      .   S
    C431   O755      1.03259      .   S
    C23    O755      1.03259      .   S
    C403   O756      1.08111      .   S
    C23    O756      1.08111      .   S
    C402   O757      1.08112      .   S
    C22    O757      1.08112      .   S
    C401   O758      1.08111      .   S
    C21    O758      1.08111      .   S
    C400   O759      1.08111      .   S
    C20    O759      1.08111      .   S
    C415   O760      0.62569      .   S
    C231   O760      0.62569      .   S
    C414   O761      0.62569      .   S
    C230   O761      0.62569      .   S
    C413   O762      0.62569      .   S
    C229   O762      0.62569      .   S
    C412   O763      0.62569      .   S
    C228   O763      0.62569      .   S
    C99    O764      0.55172      .   S
    C195   O764      0.55172      .   S
    C98    O765      0.55172      .   S
    C194   O765      0.55172      .   S
    C97    O766      0.55172      .   S
    C193   O766      0.55172      .   S
    C96    O767      0.55172      .   S
    C192   O767      0.55172      .   S
    C24    O768      1.07082      .   S
    C408   O768      1.07082      .   S
    C24    O769      1.07556      .   S
    C384   O769      1.07556      .   S
    C25    O770      1.07082      .   S
    C409   O770      1.07082      .   S
    C25    O771      1.07556      .   S
    C385   O771      1.07556      .   S
    C26    O772      1.07082      .   S
    C410   O772      1.07082      .   S
    C26    O773      1.07556      .   S
    C386   O773      1.07556      .   S
    C27    O774      1.07082      .   S
    C411   O774      1.07082      .   S
    C27    O775      1.07556      .   S
    C387   O775      1.07556      .   S
    C340   O776      0.62921      .   S
    C192   O776      0.62921      .   S
    C340   O777      1.02867  1_455   S
    C22    O777      1.02867      .   S
    C341   O778      0.62909      .   S
    C193   O778      0.62909      .   S
    C341   O779      1.02856  1_455   S
    C23    O779      1.02856      .   S
    C342   O780      0.62908      .   S
    C194   O780      0.62908      .   S
    C342   O781      1.02836      .   S
    C20    O781      1.02836      .   S
    C343   O782      0.62909      .   S
    C195   O782      0.62909      .   S
    C343   O783      1.02836      .   S
    C21    O783      1.02836      .   S
    C396   O784      0.62517      .   S
    C221   O784      0.62517      .   S
    C399   O785      0.62510      .   S
    C222   O785      0.62510  1_545   S
    C398   O786      0.62517      .   S
    C223   O786      0.62517      .   S
    C397   O787      0.62510      .   S
    C220   O787      0.62510  1_545   S
    C192   O788      0.64177      .   S
    C336   O788      0.64177      .   S
    C193   O789      0.64177      .   S
    C337   O789      0.64177      .   S
    C194   O790      0.64177      .   S
    C338   O790      0.64177      .   S
    C195   O791      0.64177      .   S
    C339   O791      0.64177      .   S
    C231   O792      0.64290      .   S
    C411   O792      0.64290      .   S
    C231   O793      0.55365      .   S
    C135   O793      0.55365      .   S
    C230   O794      0.64290      .   S
    C410   O794      0.64290      .   S
    C230   O795      0.55365      .   S
    C134   O795      0.55365      .   S
    C229   O796      0.64290      .   S
    C409   O796      0.64290      .   S
    C229   O797      0.55366      .   S
    C133   O797      0.55366      .   S
    C228   O798      0.64290      .   S
    C408   O798      0.64290      .   S
    C228   O799      0.55365      .   S
    C132   O799      0.55365      .   S
    C20    O800      1.06250      .   S
    C344   O800      1.06250      .   S
    C21    O801      1.06249      .   S
    C345   O801      1.06249      .   S
    C22    O802      1.06249      .   S
    C346   O802      1.06249      .   S
    C23    O803      1.06250      .   S
    C347   O803      1.06250      .   S
    C223   O804      0.64379      .   S
    C395   O804      0.64379      .   S
    C223   O805      0.55288      .   S
    C126   O805      0.55288      .   S
    C221   O806      0.64379      .   S
    C393   O806      0.64379      .   S
    C221   O807      0.55288      .   S
    C124   O807      0.55288      .   S
    C220   O808      0.64379      .   S
    C392   O808      0.64379      .   S
    C220   O809      0.55280  1_545   S
    C125   O809      0.55280      .   S
    C222   O810      0.64379      .   S
    C394   O810      0.64379      .   S
    C222   O811      0.55279  1_545   S
    C127   O811      0.55279      .   S
    C394   O812      1.06226      .   S
    C30    O812      1.06226      .   S
    C395   O813      1.06226      .   S
    C31    O813      1.06226      .   S
    C392   O814      1.06226      .   S
    C28    O814      1.06226      .   S
    C393   O815      1.06226      .   S
    C29    O815      1.06226      .   S
    C103   O816      0.55286      .   S
    C199   O816      0.55286      .   S
    C102   O817      0.55285      .   S
    C198   O817      0.55285      .   S
    C100   O818      0.55285      .   S
    C196   O818      0.55285      .   S
    C101   O819      0.55285      .   S
    C197   O819      0.55285      .   S
    C384   O820      0.64179      .   S
    C216   O820      0.64179      .   S
    C386   O821      0.64179      .   S
    C218   O821      0.64179      .   S
    C385   O822      0.64179      .   S
    C217   O822      0.64179      .   S
    C387   O823      0.64179      .   S
    C219   O823      0.64179      .   S
    C336   O824      1.07549      .   S
    C16    O824      1.07549      .   S
    C337   O825      1.07549      .   S
    C17    O825      1.07549      .   S
    C338   O826      1.07549      .   S
    C18    O826      1.07549      .   S
    C339   O827      1.07550      .   S
    C19    O827      1.07550      .   S
    C108   O828      0.55364      .   S
    C204   O828      0.55364      .   S
    C109   O829      0.55364      .   S
    C205   O829      0.55364      .   S
    C110   O830      0.55365      .   S
    C206   O830      0.55365      .   S
    C111   O831      0.55365      .   S
    C207   O831      0.55365      .   S
    C344   O832      0.64379      .   S
    C196   O832      0.64379      .   S
    C345   O833      0.64378      .   S
    C197   O833      0.64378      .   S
    C346   O834      0.64378      .   S
    C198   O834      0.64378      .   S
    C347   O835      0.64379      .   S
    C199   O835      0.64379      .   S
    C196   O836      0.62518      .   S
    C348   O836      0.62518      .   S
    C199   O837      0.62519      .   S
    C351   O837      0.62519      .   S
    C198   O838      0.62518      .   S
    C350   O838      0.62518      .   S
    C197   O839      0.62519      .   S
    C349   O839      0.62519      .   S
    C363   O840      0.64289      .   S
    C207   O840      0.64289      .   S
    C363   O841      1.07130      .   S
    C17    O841      1.07130  1_455   S
    C362   O842      0.64288      .   S
    C206   O842      0.64288      .   S
    C362   O843      1.07130      .   S
    C16    O843      1.07130  1_455   S
    C361   O844      0.64290      .   S
    C205   O844      0.64290      .   S
    C361   O845      1.07111      .   S
    C19    O845      1.07111      .   S
    C360   O846      0.64289      .   S
    C204   O846      0.64289      .   S
    C360   O847      1.07112      .   S
    C18    O847      1.07112      .   S
    C28    O848      1.02854      .   S
    C388   O848      1.02854      .   S
    C28    O849      1.08025      .   S
    C352   O849      1.08025      .   S
    C28    O850      1.03288      .   S
    C380   O850      1.03288      .   S
    C29    O851      1.02856      .   S
    C389   O851      1.02856      .   S
    C29    O852      1.08023      .   S
    C353   O852      1.08023      .   S
    C29    O853      1.03288      .   S
    C381   O853      1.03288      .   S
    C30    O854      1.02835      .   S
    C390   O854      1.02835      .   S
    C30    O855      1.08024      .   S
    C354   O855      1.08024      .   S
    C30    O856      1.03288      .   S
    C382   O856      1.03288      .   S
    C31    O857      1.02855      .   S
    C391   O857      1.02855      .   S
    C31    O858      1.08024      .   S
    C355   O858      1.08024      .   S
    C31    O859      1.03288      .   S
    C383   O859      1.03288      .   S
    C207   O860      0.62572      .   S
    C366   O860      0.62572      .   S
    C206   O861      0.62565      .   S
    C367   O861      0.62565  1_565   S
    C205   O862      0.62572      .   S
    C364   O862      0.62572      .   S
    C204   O863      0.62564      .   S
    C365   O863      0.62564  1_565   S
    C218   O864      0.62885      .   S
    C390   O864      0.62885      .   S
    C218   O865      0.55173      .   S
    C122   O865      0.55173      .   S
    C216   O866      0.62908      .   S
    C388   O866      0.62908      .   S
    C216   O867      0.55173      .   S
    C120   O867      0.55173      .   S
    C217   O868      0.62907      .   S
    C389   O868      0.62907      .   S
    C217   O869      0.55173      .   S
    C121   O869      0.55173      .   S
    C219   O870      0.62907      .   S
    C391   O870      0.62907      .   S
    C219   O871      0.55173      .   S
    C123   O871      0.55173      .   S
    C16    O872      1.04860      .   S
    C376   O872      1.04860      .   S
    C16    O873      1.03414      .   S
    C370   O873      1.03414  1_655   S
    C17    O874      1.04860      .   S
    C377   O874      1.04860      .   S
    C17    O875      1.03414      .   S
    C371   O875      1.03414  1_655   S
    C18    O876      1.04860      .   S
    C378   O876      1.04860      .   S
    C18    O877      1.03402      .   S
    C368   O877      1.03402      .   S
    C19    O878      1.04860      .   S
    C379   O878      1.04860      .   S
    C19    O879      1.03402      .   S
    C369   O879      1.03402      .   S
    C355   O880      0.64454      .   S
    C203   O880      0.64454      .   S
    C354   O881      0.64455      .   S
    C202   O881      0.64455      .   S
    C353   O882      0.64454      .   S
    C201   O882      0.64454      .   S
    C352   O883      0.64454      .   S
    C200   O883      0.64454      .   S
    C382   O884      0.62748      .   S
    C214   O884      0.62748      .   S
    C381   O885      0.62748      .   S
    C213   O885      0.62748      .   S
    C383   O886      0.62748      .   S
    C215   O886      0.62748      .   S
    C380   O887      0.62748      .   S
    C212   O887      0.62748      .   S
    C66    O888      0.55132      .   S
    C162   O888      0.55132      .   S
    C64    O889      0.55129      .   S
    C160   O889      0.55129      .   S
    C65    O890      0.55129      .   S
    C161   O890      0.55129      .   S
    C67    O891      0.55129      .   S
    C163   O891      0.55129      .   S
    C378   O892      0.64454      .   S
    C214   O892      0.64454      .   S
    C379   O893      0.64454      .   S
    C215   O893      0.64454      .   S
    C377   O894      0.64454      .   S
    C213   O894      0.64454      .   S
    C376   O895      0.64454      .   S
    C212   O895      0.64454      .   S
    C215   O896      0.55103      .   S
    C118   O896      0.55103      .   S
    C214   O897      0.55093      .   S
    C119   O897      0.55093  1_565   S
    C213   O898      0.55103      .   S
    C116   O898      0.55103      .   S
    C212   O899      0.55093      .   S
    C117   O899      0.55093  1_565   S
    C203   O900      0.55289      .   S
    C107   O900      0.55289      .   S
    C203   O901      0.62639      .   S
    C359   O901      0.62639      .   S
    C202   O902      0.55289      .   S
    C106   O902      0.55289      .   S
    C202   O903      0.62600      .   S
    C358   O903      0.62600      .   S
    C201   O904      0.55288      .   S
    C105   O904      0.55288      .   S
    C201   O905      0.62639      .   S
    C357   O905      0.62639      .   S
    C200   O906      0.55289      .   S
    C104   O906      0.55289      .   S
    C200   O907      0.62639      .   S
    C356   O907      0.62639      .   S
    C276   O908      0.62404      .   S
    C160   O908      0.62404      .   S
    C277   O909      0.62403      .   S
    C161   O909      0.62403      .   S
    C278   O910      0.62404      .   S
    C162   O910      0.62404      .   S
    C279   O911      0.62404      .   S
    C163   O911      0.62404      .   S
    C240   O912      1.08388      .   S
    C12    O912      1.08388      .   S
    C241   O913      1.08388      .   S
    C13    O913      1.08388      .   S
    C242   O914      1.08388      .   S
    C14    O914      1.08388      .   S
    C243   O915      1.08388      .   S
    C15    O915      1.08388      .   S
    C248   O916      1.06378  1_455   S
    C2     O916      1.06378      .   S
    C249   O917      1.06378  1_455   S
    C3     O917      1.06378      .   S
    C250   O918      1.06368      .   S
    C0     O918      1.06368      .   S
    C251   O919      1.06368      .   S
    C1     O919      1.06368      .   S
    C256   O920      1.08269      .   S
    C0     O920      1.08269      .   S
    C257   O921      1.08269      .   S
    C1     O921      1.08269      .   S
    C258   O922      1.08270      .   S
    C2     O922      1.08270      .   S
    C259   O923      1.08271      .   S
    C3     O923      1.08271      .   S
    C264   O924      1.09989      .   S
    C4     O924      1.09989      .   S
    C265   O925      1.09989      .   S
    C5     O925      1.09989      .   S
    C266   O926      1.09989      .   S
    C6     O926      1.09989      .   S
    C267   O927      1.09989      .   S
    C7     O927      1.09989      .   S
    C272   O928      1.08982      .   S
    C32    O928      1.08982      .   S
    C273   O929      1.08981      .   S
    C33    O929      1.08981      .   S
    C274   O930      1.08979      .   S
    C34    O930      1.08979      .   S
    C275   O931      1.08982      .   S
    C35    O931      1.08982      .   S
    C280   O932      1.08895      .   S
    C43    O932      1.08895      .   S
    C281   O933      1.08883      .   S
    C42    O933      1.08883  1_545   S
    C282   O934      1.08895      .   S
    C41    O934      1.08895      .   S
    C283   O935      1.08900      .   S
    C40    O935      1.08900  1_445   S
    C288   O936      1.08368      .   S
    C4     O936      1.08368      .   S
    C289   O937      1.08369      .   S
    C5     O937      1.08369      .   S
    C290   O938      1.08368      .   S
    C6     O938      1.08368      .   S
    C291   O939      1.08368      .   S
    C7     O939      1.08368      .   S
    C296   O940      1.06388      .   S
    C8     O940      1.06388      .   S
    C297   O941      1.06388      .   S
    C9     O941      1.06388      .   S
    C298   O942      1.06388      .   S
    C10    O942      1.06388      .   S
    C299   O943      1.06388      .   S
    C11    O943      1.06388      .   S
    C304   O944      1.08239      .   S
    C8     O944      1.08239      .   S
    C305   O945      1.08240      .   S
    C9     O945      1.08240      .   S
    C306   O946      1.08238      .   S
    C10    O946      1.08238      .   S
    C307   O947      1.08239      .   S
    C11    O947      1.08239      .   S
    C312   O948      1.10000      .   S
    C12    O948      1.10000      .   S
    C313   O949      1.10001      .   S
    C13    O949      1.10001      .   S
    C314   O950      1.10000      .   S
    C14    O950      1.10000      .   S
    C315   O951      1.10000      .   S
    C15    O951      1.10000      .   S
    C320   O952      1.08962      .   S
    C37    O952      1.08962      .   S
    C321   O953      1.08949      .   S
    C36    O953      1.08949  1_545   S
    C322   O954      1.08960      .   S
    C39    O954      1.08960      .   S
    C323   O955      1.08949      .   S
    C38    O955      1.08949  1_545   S
    C328   O956      1.08826      .   S
    C44    O956      1.08826      .   S
    C329   O957      1.08826      .   S
    C45    O957      1.08826      .   S
    C330   O958      1.08826      .   S
    C46    O958      1.08826      .   S
    C331   O959      1.08826      .   S
    C47    O959      1.08826      .   S
    C336   O960      1.08389      .   S
    C28    O960      1.08389      .   S
    C337   O961      1.08388      .   S
    C29    O961      1.08388      .   S
    C338   O962      1.08388      .   S
    C30    O962      1.08388      .   S
    C339   O963      1.08388      .   S
    C31    O963      1.08388      .   S
    C344   O964      1.06364      .   S
    C18    O964      1.06364      .   S
    C345   O965      1.06364      .   S
    C19    O965      1.06364      .   S
    C346   O966      1.06374  1_655   S
    C16    O966      1.06374      .   S
    C347   O967      1.06374  1_655   S
    C17    O967      1.06374      .   S
    C352   O968      1.08269      .   S
    C16    O968      1.08269      .   S
    C353   O969      1.08268      .   S
    C17    O969      1.08268      .   S
    C354   O970      1.08267      .   S
    C18    O970      1.08267      .   S
    C355   O971      1.08268      .   S
    C19    O971      1.08268      .   S
    C360   O972      1.09989      .   S
    C20    O972      1.09989      .   S
    C361   O973      1.09989      .   S
    C21    O973      1.09989      .   S
    C362   O974      1.09989      .   S
    C22    O974      1.09989      .   S
    C363   O975      1.09989      .   S
    C23    O975      1.09989      .   S
    C368   O976      1.08978      .   S
    C34    O976      1.08978  1_554   S
    C369   O977      1.08978      .   S
    C35    O977      1.08978  1_554   S
    C370   O978      1.08981      .   S
    C32    O978      1.08981  1_454   S
    C371   O979      1.08981      .   S
    C33    O979      1.08981  1_454   S
    C376   O980      1.08894      .   S
    C40    O980      1.08894  1_554   S
    C377   O981      1.08911      .   S
    C41    O981      1.08911  1_654   S
    C378   O982      1.08894      .   S
    C42    O982      1.08894  1_554   S
    C379   O983      1.08894      .   S
    C43    O983      1.08894  1_554   S
    C384   O984      1.08368      .   S
    C20    O984      1.08368      .   S
    C385   O985      1.08368      .   S
    C21    O985      1.08368      .   S
    C386   O986      1.08369      .   S
    C22    O986      1.08369      .   S
    C387   O987      1.08368      .   S
    C23    O987      1.08368      .   S
    C392   O988      1.06387      .   S
    C24    O988      1.06387      .   S
    C393   O989      1.06387      .   S
    C25    O989      1.06387      .   S
    C394   O990      1.06387      .   S
    C26    O990      1.06387      .   S
    C395   O991      1.06387      .   S
    C27    O991      1.06387      .   S
    C400   O992      1.08237      .   S
    C24    O992      1.08237      .   S
    C401   O993      1.08237      .   S
    C25    O993      1.08237      .   S
    C402   O994      1.08239      .   S
    C26    O994      1.08239      .   S
    C403   O995      1.08237      .   S
    C27    O995      1.08237      .   S
    C408   O996      1.10013      .   S
    C28    O996      1.10013      .   S
    C409   O997      1.10013      .   S
    C29    O997      1.10013      .   S
    C410   O998      1.10013      .   S
    C30    O998      1.10013      .   S
    C411   O999      1.10013      .   S
    C31    O999      1.10013      .   S
    C416   O1000     1.08961      .   S
    C36    O1000     1.08961      .   S
    C417   O1001     1.08961      .   S
    C37    O1001     1.08961      .   S
    C418   O1002     1.08961      .   S
    C38    O1002     1.08961      .   S
    C419   O1003     1.08961      .   S
    C39    O1003     1.08961      .   S
    C424   O1004     1.08826      .   S
    C44    O1004     1.08826      .   S
    C425   O1005     1.08826      .   S
    C45    O1005     1.08826      .   S
    C426   O1006     1.08826      .   S
    C46    O1006     1.08826      .   S
    C427   O1007     1.08826      .   S
    C47    O1007     1.08826      .   S
