# CIF file generated by openbabel 2.4.90, see http://openbabel.sf.net
data_I
_chemical_name_common ''
_cell_length_a 20.211
_cell_length_b 23.023
_cell_length_c 14.943
_cell_angle_alpha 91.186
_cell_angle_beta 89.997
_cell_angle_gamma 89.948
_space_group_name_H-M_alt 'P 1'
_space_group_name_Hall 'P 1'
loop_
    _symmetry_equiv_pos_as_xyz
    x,y,z
loop_
    _atom_site_label
    _atom_site_type_symbol
    _atom_site_fract_x
    _atom_site_fract_y
    _atom_site_fract_z
    _atom_site_occupancy
    Zr0     Zr   0.46392   0.37759   0.13166   1.000
    Zr1     Zr   0.46392   0.87759   0.13166   1.000
    Zr2     Zr   0.96391   0.37759   0.13166   1.000
    Zr3     Zr   0.96391   0.87759   0.13166   1.000
    Zr4     Zr   0.05860   0.37020   0.30875   1.000
    Zr5     Zr   0.05861   0.87020   0.30875   1.000
    Zr6     Zr   0.55859   0.37020   0.30875   1.000
    Zr7     Zr   0.55860   0.87020   0.30875   1.000
    Zr8     Zr   0.21392   0.37244   0.36836   1.000
    Zr9     Zr   0.21392   0.87245   0.36836   1.000
    Zr10    Zr   0.71391   0.37244   0.36836   1.000
    Zr11    Zr   0.71391   0.87245   0.36836   1.000
    Zr12    Zr   0.30858   0.37983   0.19124   1.000
    Zr13    Zr   0.30859   0.87984   0.19124   1.000
    Zr14    Zr   0.80857   0.37983   0.19124   1.000
    Zr15    Zr   0.80857   0.87984   0.19124   1.000
    Zr16    Zr   0.03607   0.12242   0.86834   1.000
    Zr17    Zr   0.03607   0.62243   0.86834   1.000
    Zr18    Zr   0.53606   0.12242   0.86834   1.000
    Zr19    Zr   0.53606   0.62243   0.86834   1.000
    Zr20    Zr   0.44138   0.12981   0.69125   1.000
    Zr21    Zr   0.44139   0.62982   0.69125   1.000
    Zr22    Zr   0.94137   0.12981   0.69125   1.000
    Zr23    Zr   0.94137   0.62982   0.69125   1.000
    Zr24    Zr   0.28607   0.12757   0.63164   1.000
    Zr25    Zr   0.28607   0.62757   0.63164   1.000
    Zr26    Zr   0.78606   0.12757   0.63164   1.000
    Zr27    Zr   0.78606   0.62757   0.63164   1.000
    Zr28    Zr   0.19140   0.12018   0.80876   1.000
    Zr29    Zr   0.19141   0.62018   0.80876   1.000
    Zr30    Zr   0.69139   0.12018   0.80876   1.000
    Zr31    Zr   0.69139   0.62018   0.80876   1.000
    Zr32    Zr   0.00000   0.25000   0.00000   1.000
    Zr33    Zr   0.00000   0.75001   0.00000   1.000
    Zr34    Zr   0.49999   0.25000   0.00000   1.000
    Zr35    Zr   0.49999   0.75001   0.00000   1.000
    Zr36    Zr   0.24999   0.00000   0.50000   1.000
    Zr37    Zr   0.25000   0.50001   0.50000   1.000
    Zr38    Zr   0.74998   0.00000   0.50000   1.000
    Zr39    Zr   0.74998   0.50001   0.50000   1.000
    Zr40    Zr   0.00000   0.00000   0.00000   1.000
    Zr41    Zr   0.99998   0.50001   0.00000   1.000
    Zr42    Zr   0.49999   0.00000   0.00000   1.000
    Zr43    Zr   0.49999   0.50001   0.00000   1.000
    Zr44    Zr   0.24999   0.25000   0.50000   1.000
    Zr45    Zr   0.25000   0.75001   0.50000   1.000
    Zr46    Zr   0.74998   0.25000   0.50000   1.000
    Zr47    Zr   0.74998   0.75001   0.50000   1.000
    N48     N    0.16962   0.83700   0.17250   1.000
    O49     O    0.21830   0.84905   0.16805   1.000
    O50     O    0.17700   0.84859   0.24183   1.000
    O51     O    0.13818   0.84803   0.22693   1.000
    N52     N    0.91955   0.91303   0.32749   1.000
    O53     O    0.96825   0.90099   0.33195   1.000
    O54     O    0.88811   0.90200   0.27307   1.000
    O55     O    0.92695   0.90144   0.25817   1.000
    N56     N    0.48664   0.23987   0.79316   1.000
    O57     O    0.49261   0.25001   0.86224   1.000
    O58     O    0.50007   0.19679   0.80995   1.000
    O59     O    0.47640   0.19864   0.76568   1.000
    N60     N    0.48664   0.73987   0.79316   1.000
    O61     O    0.49262   0.75002   0.86224   1.000
    O62     O    0.50007   0.69680   0.80995   1.000
    O63     O    0.47640   0.69865   0.76568   1.000
    N64     N    0.98663   0.23987   0.79316   1.000
    O65     O    0.99261   0.25001   0.86224   1.000
    O66     O    0.00006   0.19679   0.80995   1.000
    O67     O    0.97639   0.19864   0.76568   1.000
    N68     N    0.98663   0.73987   0.79316   1.000
    O69     O    0.99261   0.75002   0.86224   1.000
    O70     O    0.00006   0.69680   0.80995   1.000
    O71     O    0.97639   0.69865   0.76568   1.000
    N72     N    0.06843   0.47528   0.17982   1.000
    O73     O    0.04810   0.49009   0.11935   1.000
    O74     O    0.03625   0.43829   0.17069   1.000
    O75     O    0.05993   0.43644   0.21496   1.000
    N76     N    0.31845   0.27469   0.32017   1.000
    O77     O    0.29811   0.25989   0.38063   1.000
    O78     O    0.28627   0.31170   0.32930   1.000
    O79     O    0.30994   0.31355   0.28502   1.000
    N80     N    0.81844   0.77470   0.32017   1.000
    O81     O    0.78626   0.81171   0.32930   1.000
    O82     O    0.80993   0.81356   0.28502   1.000
    O83     O    0.79811   0.75989   0.38063   1.000
    N84     N    0.81844   0.27469   0.32017   1.000
    O85     O    0.78626   0.31170   0.32930   1.000
    O86     O    0.80993   0.31355   0.28502   1.000
    O87     O    0.79810   0.25989   0.38063   1.000
    N88     N    0.55009   0.37098   0.96802   1.000
    O89     O    0.52850   0.33376   0.98951   1.000
    O90     O    0.51948   0.36566   0.02242   1.000
    O91     O    0.53883   0.41682   0.97436   1.000
    N92     N    0.55010   0.87099   0.96803   1.000
    O93     O    0.51948   0.86566   0.02244   1.000
    O94     O    0.52850   0.83377   0.98952   1.000
    O95     O    0.53884   0.91682   0.97437   1.000
    N96     N    0.73670   0.01014   0.70686   1.000
    O97     O    0.74264   0.99999   0.63776   1.000
    O98     O    0.75013   0.05321   0.69006   1.000
    O99     O    0.72646   0.05136   0.73434   1.000
    N100    N    0.39139   0.03779   0.55445   1.000
    O101    O    0.36085   0.06969   0.58851   1.000
    O102    O    0.39968   0.07025   0.60341   1.000
    O103    O    0.34664   0.02100   0.52812   1.000
    N104    N    0.39139   0.53780   0.55445   1.000
    O105    O    0.36085   0.56969   0.58851   1.000
    O106    O    0.39968   0.57026   0.60341   1.000
    O107    O    0.34665   0.52101   0.52812   1.000
    N108    N    0.89138   0.03779   0.55445   1.000
    O109    O    0.86084   0.06969   0.58851   1.000
    O110    O    0.89967   0.07025   0.60341   1.000
    O111    O    0.84663   0.02100   0.52812   1.000
    N112    N    0.89138   0.53780   0.55445   1.000
    O113    O    0.86084   0.56969   0.58851   1.000
    O114    O    0.89967   0.57026   0.60341   1.000
    O115    O    0.84663   0.52101   0.52812   1.000
    N116    N    0.08043   0.58699   0.67251   1.000
    O117    O    0.03173   0.59903   0.66805   1.000
    O118    O    0.11187   0.59802   0.72693   1.000
    O119    O    0.07303   0.59858   0.74183   1.000
    N120    N    0.58042   0.08698   0.67251   1.000
    O121    O    0.53172   0.09902   0.66805   1.000
    O122    O    0.61185   0.09801   0.72693   1.000
    O123    O    0.57302   0.09857   0.74183   1.000
    N124    N    0.01335   0.76015   0.20683   1.000
    O125    O    0.02359   0.80138   0.23432   1.000
    O126    O    0.99992   0.80322   0.19005   1.000
    O127    O    0.00738   0.75000   0.13774   1.000
    N128    N    0.86384   0.46470   0.05776   1.000
    O129    O    0.83761   0.43847   0.10118   1.000
    O130    O    0.90385   0.43876   0.07760   1.000
    O131    O    0.91287   0.46936   0.04469   1.000
    N132    N    0.86384   0.96471   0.05776   1.000
    O133    O    0.83761   0.93847   0.10118   1.000
    O134    O    0.90385   0.93876   0.07760   1.000
    O135    O    0.91288   0.96936   0.04469   1.000
    N136    N    0.68152   0.22532   0.67983   1.000
    O137    O    0.70186   0.24012   0.61936   1.000
    O138    O    0.69004   0.18646   0.71497   1.000
    O139    O    0.71370   0.18830   0.67069   1.000
    N140    N    0.68153   0.72532   0.67983   1.000
    O141    O    0.70186   0.74013   0.61936   1.000
    O142    O    0.69004   0.68646   0.71497   1.000
    O143    O    0.71371   0.68831   0.67069   1.000
    N144    N    0.61390   0.78538   0.44228   1.000
    O145    O    0.65389   0.81131   0.42243   1.000
    O146    O    0.66291   0.78070   0.45534   1.000
    O147    O    0.58765   0.81160   0.39883   1.000
    N148    N    0.08043   0.08698   0.67251   1.000
    O149    O    0.03173   0.09902   0.66804   1.000
    O150    O    0.11186   0.09801   0.72693   1.000
    O151    O    0.07303   0.09857   0.74182   1.000
    N152    N    0.19989   0.12103   0.46806   1.000
    O153    O    0.23050   0.11568   0.52246   1.000
    O154    O    0.22148   0.08379   0.48955   1.000
    O155    O    0.21115   0.16686   0.47438   1.000
    N156    N    0.19989   0.62104   0.46806   1.000
    O157    O    0.23051   0.61568   0.52246   1.000
    O158    O    0.22149   0.58379   0.48955   1.000
    O159    O    0.21116   0.66686   0.47438   1.000
    N160    N    0.51334   0.76015   0.20683   1.000
    O161    O    0.50736   0.75000   0.13774   1.000
    O162    O    0.52358   0.80138   0.23432   1.000
    O163    O    0.49991   0.80322   0.19005   1.000
    N164    N    0.51334   0.26014   0.20683   1.000
    O165    O    0.50736   0.24999   0.13774   1.000
    O166    O    0.52358   0.30137   0.23432   1.000
    O167    O    0.49991   0.30322   0.19005   1.000
    N168    N    0.80009   0.87899   0.53193   1.000
    O169    O    0.76948   0.88434   0.47753   1.000
    O170    O    0.77849   0.91623   0.51044   1.000
    O171    O    0.78882   0.83316   0.52562   1.000
    N172    N    0.80009   0.37898   0.53194   1.000
    O173    O    0.76947   0.38433   0.47754   1.000
    O174    O    0.77849   0.41622   0.51045   1.000
    O175    O    0.78882   0.33315   0.52562   1.000
    N176    N    0.30010   0.37898   0.53193   1.000
    O177    O    0.28883   0.33315   0.52562   1.000
    O178    O    0.26949   0.38433   0.47753   1.000
    O179    O    0.27851   0.41622   0.51044   1.000
    N180    N    0.30010   0.87899   0.53193   1.000
    O181    O    0.26949   0.88434   0.47753   1.000
    O182    O    0.27851   0.91623   0.51044   1.000
    O183    O    0.28884   0.83316   0.52562   1.000
    N184    N    0.33037   0.66302   0.82747   1.000
    O185    O    0.28170   0.65097   0.83194   1.000
    O186    O    0.36182   0.65199   0.77306   1.000
    O187    O    0.32299   0.65143   0.75815   1.000
    N188    N    0.83036   0.16301   0.82745   1.000
    O189    O    0.78168   0.15097   0.83192   1.000
    O190    O    0.86180   0.15198   0.77305   1.000
    O191    O    0.82297   0.15142   0.75814   1.000
    N192    N    0.83036   0.66302   0.82747   1.000
    O193    O    0.78169   0.65097   0.83194   1.000
    O194    O    0.86181   0.65199   0.77306   1.000
    O195    O    0.82298   0.65143   0.75815   1.000
    N196    N    0.23671   0.01014   0.70686   1.000
    O197    O    0.25014   0.05321   0.69006   1.000
    O198    O    0.22647   0.05136   0.73434   1.000
    O199    O    0.24265   0.99999   0.63776   1.000
    N200    N    0.23671   0.51014   0.70686   1.000
    O201    O    0.25014   0.55321   0.69006   1.000
    O202    O    0.22647   0.55136   0.73434   1.000
    O203    O    0.24265   0.49999   0.63776   1.000
    N204    N    0.18154   0.22532   0.67983   1.000
    O205    O    0.19005   0.18646   0.71497   1.000
    O206    O    0.21371   0.18830   0.67069   1.000
    O207    O    0.20187   0.24012   0.61936   1.000
    N208    N    0.18154   0.72532   0.67983   1.000
    O209    O    0.19005   0.68646   0.71497   1.000
    O210    O    0.21372   0.68831   0.67069   1.000
    O211    O    0.20188   0.74013   0.61936   1.000
    N212    N    0.36385   0.96471   0.05776   1.000
    O213    O    0.33762   0.93847   0.10118   1.000
    O214    O    0.40387   0.93876   0.07760   1.000
    O215    O    0.41288   0.96936   0.04469   1.000
    N216    N    0.36385   0.46470   0.05776   1.000
    O217    O    0.33762   0.43847   0.10118   1.000
    O218    O    0.40386   0.43876   0.07760   1.000
    O219    O    0.41288   0.46936   0.04469   1.000
    N220    N    0.16962   0.33699   0.17250   1.000
    O221    O    0.17700   0.34859   0.24183   1.000
    O222    O    0.13817   0.34803   0.22693   1.000
    O223    O    0.21829   0.34904   0.16805   1.000
    N224    N    0.91954   0.41303   0.32747   1.000
    O225    O    0.92694   0.40143   0.25816   1.000
    O226    O    0.88811   0.40200   0.27306   1.000
    O227    O    0.96825   0.40099   0.33194   1.000
    N228    N    0.76327   0.48987   0.29312   1.000
    O229    O    0.75733   0.50002   0.36223   1.000
    O230    O    0.77351   0.44865   0.26565   1.000
    O231    O    0.74984   0.44680   0.30993   1.000
    N232    N    0.76327   0.98987   0.29314   1.000
    O233    O    0.75733   0.00002   0.36224   1.000
    O234    O    0.77351   0.94865   0.26566   1.000
    O235    O    0.74984   0.94680   0.30994   1.000
    N236    N    0.31845   0.77470   0.32017   1.000
    O237    O    0.28628   0.81171   0.32930   1.000
    O238    O    0.30994   0.81356   0.28502   1.000
    O239    O    0.29812   0.75989   0.38063   1.000
    N240    N    0.41956   0.41303   0.32748   1.000
    O241    O    0.42696   0.40143   0.25817   1.000
    O242    O    0.38812   0.40200   0.27306   1.000
    O243    O    0.46825   0.40099   0.33195   1.000
    N244    N    0.41956   0.91303   0.32747   1.000
    O245    O    0.38813   0.90200   0.27306   1.000
    O246    O    0.42696   0.90144   0.25816   1.000
    O247    O    0.46825   0.90099   0.33194   1.000
    N248    N    0.56841   0.47528   0.17982   1.000
    O249    O    0.54809   0.49009   0.11935   1.000
    O250    O    0.53625   0.43829   0.17069   1.000
    O251    O    0.55992   0.43644   0.21496   1.000
    N252    N    0.05011   0.37098   0.96803   1.000
    O253    O    0.01949   0.36566   0.02244   1.000
    O254    O    0.02851   0.33376   0.98952   1.000
    O255    O    0.03884   0.41682   0.97437   1.000
    N256    N    0.44988   0.12903   0.03197   1.000
    O257    O    0.48049   0.13435   0.97757   1.000
    O258    O    0.47148   0.16625   0.01048   1.000
    O259    O    0.46114   0.08319   0.02563   1.000
    N260    N    0.10860   0.96222   0.44555   1.000
    O261    O    0.13914   0.93033   0.41149   1.000
    O262    O    0.10031   0.92976   0.39659   1.000
    O263    O    0.15335   0.97901   0.47188   1.000
    N264    N    0.60859   0.46221   0.44555   1.000
    O265    O    0.60030   0.42976   0.39659   1.000
    O266    O    0.63912   0.43032   0.41149   1.000
    O267    O    0.65333   0.47901   0.47188   1.000
    N268    N    0.56842   0.97528   0.17982   1.000
    O269    O    0.54809   0.99009   0.11935   1.000
    O270    O    0.53625   0.93829   0.17069   1.000
    O271    O    0.55992   0.93645   0.21496   1.000
    N272    N    0.01335   0.26014   0.20683   1.000
    O273    O    0.02359   0.30137   0.23432   1.000
    O274    O    0.99991   0.30322   0.19005   1.000
    O275    O    0.00737   0.24999   0.13774   1.000
    N276    N    0.85862   0.28795   0.05441   1.000
    O277    O    0.90336   0.27113   0.02806   1.000
    O278    O    0.85032   0.32035   0.10339   1.000
    O279    O    0.88915   0.31979   0.08849   1.000
    N280    N    0.85863   0.78796   0.05440   1.000
    O281    O    0.90337   0.77113   0.02805   1.000
    O282    O    0.85032   0.82036   0.10338   1.000
    O283    O    0.88915   0.81980   0.08849   1.000
    N284    N    0.35864   0.78796   0.05441   1.000
    O285    O    0.40337   0.77113   0.02806   1.000
    O286    O    0.35033   0.82036   0.10339   1.000
    O287    O    0.38917   0.81980   0.08849   1.000
    N288    N    0.35863   0.28795   0.05440   1.000
    O289    O    0.40337   0.27112   0.02806   1.000
    O290    O    0.35033   0.32035   0.10339   1.000
    O291    O    0.38916   0.31979   0.08850   1.000
    N292    N    0.33037   0.16301   0.82747   1.000
    O293    O    0.36181   0.15198   0.77306   1.000
    O294    O    0.32299   0.15142   0.75815   1.000
    O295    O    0.28169   0.15097   0.83194   1.000
    N296    N    0.14135   0.21206   0.94559   1.000
    O297    O    0.11082   0.18022   0.91150   1.000
    O298    O    0.14966   0.17966   0.89660   1.000
    O299    O    0.09662   0.22888   0.97194   1.000
    N300    N    0.14136   0.71206   0.94559   1.000
    O301    O    0.09662   0.72889   0.97194   1.000
    O302    O    0.11083   0.68022   0.91150   1.000
    O303    O    0.14966   0.67966   0.89660   1.000
    N304    N    0.38609   0.71464   0.55771   1.000
    O305    O    0.33707   0.71932   0.54465   1.000
    O306    O    0.34609   0.68871   0.57756   1.000
    O307    O    0.41233   0.68842   0.60116   1.000
    N308    N    0.88607   0.21463   0.55772   1.000
    O309    O    0.83706   0.21931   0.54466   1.000
    O310    O    0.84608   0.18870   0.57757   1.000
    O311    O    0.91231   0.18842   0.60117   1.000
    N312    N    0.88607   0.71464   0.55772   1.000
    O313    O    0.83706   0.71932   0.54466   1.000
    O314    O    0.84608   0.68871   0.57757   1.000
    O315    O    0.91232   0.68842   0.60117   1.000
    N316    N    0.26328   0.48987   0.29314   1.000
    O317    O    0.25734   0.50002   0.36224   1.000
    O318    O    0.27352   0.44865   0.26566   1.000
    O319    O    0.24985   0.44680   0.30994   1.000
    N320    N    0.60859   0.96222   0.44555   1.000
    O321    O    0.60030   0.92977   0.39659   1.000
    O322    O    0.63913   0.93033   0.41149   1.000
    O323    O    0.65333   0.97901   0.47188   1.000
    N324    N    0.26328   0.98987   0.29314   1.000
    O325    O    0.27352   0.94865   0.26566   1.000
    O326    O    0.24985   0.94680   0.30994   1.000
    O327    O    0.25734   0.00002   0.36224   1.000
    N328    N    0.63613   0.53531   0.94224   1.000
    O329    O    0.58710   0.53065   0.95531   1.000
    O330    O    0.59611   0.56126   0.92240   1.000
    O331    O    0.66236   0.56155   0.89881   1.000
    N332    N    0.63613   0.03531   0.94224   1.000
    O333    O    0.66236   0.06154   0.89881   1.000
    O334    O    0.58710   0.03065   0.95531   1.000
    O335    O    0.59611   0.06125   0.92240   1.000
    N336    N    0.13614   0.03531   0.94224   1.000
    O337    O    0.16237   0.06154   0.89881   1.000
    O338    O    0.08711   0.03065   0.95531   1.000
    O339    O    0.09612   0.06125   0.92240   1.000
    N340    N    0.13614   0.53531   0.94224   1.000
    O341    O    0.16237   0.56155   0.89881   1.000
    O342    O    0.08710   0.53065   0.95531   1.000
    O343    O    0.09613   0.56126   0.92240   1.000
    N344    N    0.66961   0.33699   0.17252   1.000
    O345    O    0.71828   0.34904   0.16806   1.000
    O346    O    0.67699   0.34859   0.24184   1.000
    O347    O    0.63816   0.34803   0.22694   1.000
    N348    N    0.64134   0.21206   0.94557   1.000
    O349    O    0.59661   0.22888   0.97191   1.000
    O350    O    0.64965   0.17966   0.89659   1.000
    O351    O    0.61081   0.18022   0.91149   1.000
    N352    N    0.64134   0.71206   0.94559   1.000
    O353    O    0.59661   0.72889   0.97194   1.000
    O354    O    0.64965   0.67966   0.89660   1.000
    O355    O    0.61082   0.68022   0.91150   1.000
    N356    N    0.61389   0.28537   0.44228   1.000
    O357    O    0.65389   0.31131   0.42243   1.000
    O358    O    0.66291   0.28070   0.45534   1.000
    O359    O    0.58765   0.31159   0.39883   1.000
    N360    N    0.94987   0.12903   0.03197   1.000
    O361    O    0.97147   0.16625   0.01048   1.000
    O362    O    0.98049   0.13435   0.97757   1.000
    O363    O    0.96114   0.08319   0.02563   1.000
    N364    N    0.94987   0.62903   0.03197   1.000
    O365    O    0.96113   0.58319   0.02563   1.000
    O366    O    0.97147   0.66625   0.01048   1.000
    O367    O    0.98049   0.63436   0.97757   1.000
    N368    N    0.05011   0.87099   0.96803   1.000
    O369    O    0.01949   0.86566   0.02244   1.000
    O370    O    0.02851   0.83377   0.98952   1.000
    O371    O    0.03885   0.91682   0.97437   1.000
    N372    N    0.11391   0.28537   0.44228   1.000
    O373    O    0.08766   0.31159   0.39883   1.000
    O374    O    0.16292   0.28070   0.45534   1.000
    O375    O    0.15390   0.31131   0.42243   1.000
    N376    N    0.11391   0.78538   0.44228   1.000
    O377    O    0.15390   0.81131   0.42243   1.000
    O378    O    0.16292   0.78070   0.45534   1.000
    O379    O    0.08767   0.81160   0.39883   1.000
    N380    N    0.58042   0.58699   0.67251   1.000
    O381    O    0.61186   0.59802   0.72693   1.000
    O382    O    0.57302   0.59858   0.74183   1.000
    O383    O    0.53173   0.59903   0.66805   1.000
    N384    N    0.10860   0.46222   0.44555   1.000
    O385    O    0.10031   0.42976   0.39659   1.000
    O386    O    0.13914   0.43032   0.41149   1.000
    O387    O    0.15334   0.47901   0.47188   1.000
    N388    N    0.69988   0.12103   0.46806   1.000
    O389    O    0.73049   0.11568   0.52246   1.000
    O390    O    0.72147   0.08379   0.48955   1.000
    O391    O    0.71114   0.16686   0.47438   1.000
    N392    N    0.69988   0.62104   0.46806   1.000
    O393    O    0.73049   0.61568   0.52246   1.000
    O394    O    0.72147   0.58379   0.48955   1.000
    O395    O    0.71115   0.66686   0.47438   1.000
    N396    N    0.66961   0.83700   0.17250   1.000
    O397    O    0.71828   0.84905   0.16805   1.000
    O398    O    0.67699   0.84859   0.24183   1.000
    O399    O    0.63816   0.84803   0.22693   1.000
    N400    N    0.43156   0.02473   0.82019   1.000
    O401    O    0.44006   0.06357   0.78504   1.000
    O402    O    0.46373   0.06172   0.82931   1.000
    O403    O    0.45189   0.00992   0.88065   1.000
    N404    N    0.43156   0.52474   0.82018   1.000
    O405    O    0.44006   0.56357   0.78504   1.000
    O406    O    0.46373   0.56173   0.82931   1.000
    O407    O    0.45189   0.50992   0.88065   1.000
    N408    N    0.73670   0.51014   0.70686   1.000
    O409    O    0.75013   0.55321   0.69006   1.000
    O410    O    0.72646   0.55136   0.73434   1.000
    O411    O    0.74264   0.49999   0.63776   1.000
    N412    N    0.38608   0.21463   0.55771   1.000
    O413    O    0.41233   0.18842   0.60116   1.000
    O414    O    0.33707   0.21931   0.54465   1.000
    O415    O    0.34609   0.18870   0.57756   1.000
    N416    N    0.06843   0.97528   0.17982   1.000
    O417    O    0.04810   0.99009   0.11935   1.000
    O418    O    0.03625   0.93829   0.17069   1.000
    O419    O    0.05993   0.93645   0.21496   1.000
    N420    N    0.93155   0.52474   0.82019   1.000
    O421    O    0.95188   0.50992   0.88065   1.000
    O422    O    0.96373   0.56173   0.82931   1.000
    O423    O    0.94005   0.56357   0.78504   1.000
    N424    N    0.93155   0.02473   0.82018   1.000
    O425    O    0.95188   0.00992   0.88065   1.000
    O426    O    0.94005   0.06357   0.78504   1.000
    O427    O    0.96372   0.06172   0.82931   1.000
    N428    N    0.44988   0.62903   0.03196   1.000
    O429    O    0.48050   0.63436   0.97756   1.000
    O430    O    0.47148   0.66625   0.01048   1.000
    O431    O    0.46114   0.58319   0.02563   1.000
loop_
    _geom_bond_atom_site_label_1
    _geom_bond_atom_site_label_2
    _geom_bond_distance
    _geom_bond_site_symmetry_2
    _ccdc_geom_bond_type
    N48    O49       1.02484      .   S
    Zr13   O49       1.98624      .   S
    N48    O50       1.07493      .   S
    Zr9    O50       2.09544      .   S
    N48    O51       1.05882      .   S
    Zr5    O51       2.07703      .   S
    N52    O53       1.02488      .   S
    Zr5    O53       1.98625  1_455   S
    N52    O54       1.05888      .   S
    Zr15   O54       2.07738      .   S
    N52    O55       1.07468      .   S
    Zr3    O55       2.09511      .   S
    N56    O57       1.06060      .   S
    Zr34   O57       2.06399  1_554   S
    N56    O58       1.06302      .   S
    Zr18   O58       2.06925      .   S
    N56    O59       1.04719      .   S
    Zr20   O59       2.04401      .   S
    N60    O61       1.06060      .   S
    Zr35   O61       2.06399  1_554   S
    N60    O62       1.06302      .   S
    Zr19   O62       2.06925      .   S
    N60    O63       1.04720      .   S
    Zr21   O63       2.04401      .   S
    N64    O65       1.06061      .   S
    Zr32   O65       2.06401  1_454   S
    N64    O66       1.06304  1_655   S
    Zr16   O66       2.06937      .   S
    N64    O67       1.04720      .   S
    Zr22   O67       2.04401      .   S
    N68    O69       1.06062      .   S
    Zr33   O69       2.06401  1_454   S
    N68    O70       1.06305  1_655   S
    Zr17   O70       2.06938      .   S
    N68    O71       1.04720      .   S
    Zr23   O71       2.04401      .   S
    N72    O73       1.05550      .   S
    Zr41   O73       2.04824  1_655   S
    N72    O74       1.07837      .   S
    Zr2    O74       2.09792  1_655   S
    N72    O75       1.06044      .   S
    Zr4    O75       2.09269      .   S
    N76    O77       1.05569      .   S
    Zr44   O77       2.04847      .   S
    N76    O78       1.07793      .   S
    Zr8    O78       2.09691      .   S
    N76    O79       1.06072      .   S
    Zr12   O79       2.09319      .   S
    N80    O81       1.07793      .   S
    Zr11   O81       2.09691      .   S
    N80    O82       1.06072      .   S
    Zr15   O82       2.09319      .   S
    N80    O83       1.05569      .   S
    Zr47   O83       2.04847      .   S
    N84    O85       1.07793      .   S
    Zr10   O85       2.09691      .   S
    N84    O86       1.06073      .   S
    Zr14   O86       2.09319      .   S
    N84    O87       1.05569      .   S
    Zr46   O87       2.04847      .   S
    N88    O89       1.01978      .   S
    Zr34   O89       2.02233  1_554   S
    N88    O90       1.03101  1_556   S
    Zr0    O90       1.99538      .   S
    N88    O91       1.08161      .   S
    Zr43   O91       2.09712  1_554   S
    N92    O93       1.03104  1_556   S
    Zr1    O93       1.99524      .   S
    N92    O94       1.01980      .   S
    Zr35   O94       2.02232  1_554   S
    N92    O95       1.08154      .   S
    Zr42   O95       2.09696  1_544   S
    N96    O97       1.06063  1_545   S
    Zr38   O97       2.06394  1_545   S
    N96    O98       1.06326      .   S
    Zr26   O98       2.06983      .   S
    N96    O99       1.04667      .   S
    Zr30   O99       2.04305      .   S
    N100   O101      1.07830      .   S
    Zr24   O101      2.10617      .   S
    N100   O102      1.04844      .   S
    Zr20   O102      2.05945      .   S
    N100   O103      1.05667      .   S
    Zr36   O103      2.05413      .   S
    N104   O105      1.07830      .   S
    Zr25   O105      2.10617      .   S
    N104   O106      1.04845      .   S
    Zr21   O106      2.05946      .   S
    N104   O107      1.05667      .   S
    Zr37   O107      2.05414      .   S
    N108   O109      1.07832      .   S
    Zr26   O109      2.10620      .   S
    N108   O110      1.04846      .   S
    Zr22   O110      2.05948      .   S
    N108   O111      1.05666      .   S
    Zr38   O111      2.05413      .   S
    N112   O113      1.07831      .   S
    Zr27   O113      2.10618      .   S
    N112   O114      1.04845      .   S
    Zr23   O114      2.05946      .   S
    N112   O115      1.05667      .   S
    Zr39   O115      2.05413      .   S
    N116   O117      1.02488      .   S
    Zr23   O117      1.98626  1_655   S
    N116   O118      1.05887      .   S
    Zr29   O118      2.07737      .   S
    N116   O119      1.07466      .   S
    Zr17   O119      2.09509      .   S
    N120   O121      1.02477      .   S
    Zr20   O121      1.98592      .   S
    N120   O122      1.05887      .   S
    Zr30   O122      2.07737      .   S
    N120   O123      1.07466      .   S
    Zr18   O123      2.09509      .   S
    N124   O125      1.04724      .   S
    Zr5    O125      2.04402      .   S
    N124   O126      1.06302  1_455   S
    Zr3    O126      2.06934      .   S
    N124   O127      1.06073      .   S
    Zr33   O127      2.06367      .   S
    N128   O129      1.04097      .   S
    Zr14   O129      2.01352      .   S
    N128   O130      1.05137      .   S
    Zr2    O130      2.03791      .   S
    N128   O131      1.01631      .   S
    Zr41   O131      2.01616      .   S
    N132   O133      1.04094      .   S
    Zr15   O133      2.01350      .   S
    N132   O134      1.05137      .   S
    Zr3    O134      2.03790      .   S
    N132   O135      1.01641      .   S
    Zr40   O135      2.01636  1_445   S
    N136   O137      1.05566      .   S
    Zr46   O137      2.04843      .   S
    N136   O138      1.06070      .   S
    Zr30   O138      2.09328      .   S
    N136   O139      1.07793      .   S
    Zr26   O139      2.09688      .   S
    N140   O141      1.05566      .   S
    Zr47   O141      2.04843      .   S
    N140   O142      1.06070      .   S
    Zr31   O142      2.09328      .   S
    N140   O143      1.07793      .   S
    Zr27   O143      2.09688      .   S
    N144   O145      1.05166      .   S
    Zr11   O145      2.03848      .   S
    N144   O146      1.01573      .   S
    Zr47   O146      2.01473      .   S
    N144   O147      1.04063      .   S
    Zr7    O147      2.01277      .   S
    N148   O149      1.02488      .   S
    Zr22   O149      1.98628  1_655   S
    N148   O150      1.05893      .   S
    Zr28   O150      2.07743      .   S
    N148   O151      1.07474      .   S
    Zr16   O151      2.09516      .   S
    N152   O153      1.03096      .   S
    Zr24   O153      1.99505      .   S
    N152   O154      1.01961      .   S
    Zr36   O154      2.02183      .   S
    N152   O155      1.08178      .   S
    Zr44   O155      2.09757      .   S
    N156   O157      1.03096      .   S
    Zr25   O157      1.99504      .   S
    N156   O158      1.01961      .   S
    Zr37   O158      2.02182      .   S
    N156   O159      1.08177      .   S
    Zr45   O159      2.09757      .   S
    N160   O161      1.06073      .   S
    Zr35   O161      2.06367      .   S
    N160   O162      1.04725      .   S
    Zr7    O162      2.04404      .   S
    N160   O163      1.06298      .   S
    Zr1    O163      2.06921      .   S
    N164   O165      1.06073      .   S
    Zr34   O165      2.06367      .   S
    N164   O166      1.04725      .   S
    Zr6    O166      2.04404      .   S
    N164   O167      1.06298      .   S
    Zr0    O167      2.06921      .   S
    N168   O169      1.03099      .   S
    Zr11   O169      1.99496      .   S
    N168   O170      1.01957      .   S
    Zr38   O170      2.02162  1_545   S
    N168   O171      1.08177      .   S
    Zr47   O171      2.09757      .   S
    N172   O173      1.03096      .   S
    Zr10   O173      1.99505      .   S
    N172   O174      1.01961      .   S
    Zr39   O174      2.02181      .   S
    N172   O175      1.08178      .   S
    Zr46   O175      2.09758      .   S
    N176   O177      1.08177      .   S
    Zr44   O177      2.09757      .   S
    N176   O178      1.03099      .   S
    Zr8    O178      1.99495      .   S
    N176   O179      1.01962      .   S
    Zr37   O179      2.02180      .   S
    N180   O181      1.03099      .   S
    Zr9    O181      1.99495      .   S
    N180   O182      1.01957      .   S
    Zr36   O182      2.02162  1_545   S
    N180   O183      1.08177      .   S
    Zr45   O183      2.09757      .   S
    N184   O185      1.02486      .   S
    Zr29   O185      1.98621      .   S
    N184   O186      1.05868      .   S
    Zr21   O186      2.07692      .   S
    N184   O187      1.07475      .   S
    Zr25   O187      2.09527      .   S
    N188   O189      1.02485      .   S
    Zr30   O189      1.98615      .   S
    N188   O190      1.05858      .   S
    Zr22   O190      2.07685      .   S
    N188   O191      1.07462      .   S
    Zr26   O191      2.09516      .   S
    N192   O193      1.02485      .   S
    Zr31   O193      1.98621      .   S
    N192   O194      1.05867      .   S
    Zr23   O194      2.07691      .   S
    N192   O195      1.07475      .   S
    Zr27   O195      2.09527      .   S
    N196   O197      1.06326      .   S
    Zr24   O197      2.06983      .   S
    N196   O198      1.04667      .   S
    Zr28   O198      2.04305      .   S
    N196   O199      1.06063  1_545   S
    Zr36   O199      2.06394  1_545   S
    N200   O201      1.06333      .   S
    Zr25   O201      2.06990      .   S
    N200   O202      1.04672      .   S
    Zr29   O202      2.04309      .   S
    N200   O203      1.06063      .   S
    Zr37   O203      2.06395      .   S
    N204   O205      1.06070      .   S
    Zr28   O205      2.09328      .   S
    N204   O206      1.07793      .   S
    Zr24   O206      2.09688      .   S
    N204   O207      1.05565      .   S
    Zr44   O207      2.04843      .   S
    N208   O209      1.06070      .   S
    Zr29   O209      2.09328      .   S
    N208   O210      1.07794      .   S
    Zr25   O210      2.09689      .   S
    N208   O211      1.05565      .   S
    Zr45   O211      2.04844      .   S
    N212   O213      1.04094      .   S
    Zr13   O213      2.01349      .   S
    N212   O214      1.05137      .   S
    Zr1    O214      2.03790      .   S
    N212   O215      1.01629      .   S
    Zr42   O215      2.01604  1_545   S
    N216   O217      1.04097      .   S
    Zr12   O217      2.01353      .   S
    N216   O218      1.05138      .   S
    Zr0    O218      2.03791      .   S
    N216   O219      1.01631      .   S
    Zr43   O219      2.01616      .   S
    N220   O221      1.07493      .   S
    Zr8    O221      2.09544      .   S
    N220   O222      1.05881      .   S
    Zr4    O222      2.07702      .   S
    N220   O223      1.02484      .   S
    Zr12   O223      1.98623      .   S
    N224   O225      1.07457      .   S
    Zr2    O225      2.09501      .   S
    N224   O226      1.05880      .   S
    Zr14   O226      2.07732      .   S
    N224   O227      1.02489      .   S
    Zr4    O227      1.98624  1_455   S
    N228   O229      1.06077      .   S
    Zr39   O229      2.06410      .   S
    N228   O230      1.04667      .   S
    Zr14   O230      2.04302      .   S
    N228   O231      1.06337      .   S
    Zr10   O231      2.06998      .   S
    N232   O233      1.06062  1_565   S
    Zr38   O233      2.06395      .   S
    N232   O234      1.04666      .   S
    Zr15   O234      2.04305      .   S
    N232   O235      1.06326      .   S
    Zr11   O235      2.06984      .   S
    N236   O237      1.07793      .   S
    Zr9    O237      2.09691      .   S
    N236   O238      1.06073      .   S
    Zr13   O238      2.09321      .   S
    N236   O239      1.05569      .   S
    Zr45   O239      2.04846      .   S
    N240   O241      1.07467      .   S
    Zr0    O241      2.09510      .   S
    N240   O242      1.05887      .   S
    Zr12   O242      2.07738      .   S
    N240   O243      1.02477      .   S
    Zr6    O243      1.98593      .   S
    N244   O245      1.05880      .   S
    Zr13   O245      2.07732      .   S
    N244   O246      1.07457      .   S
    Zr1    O246      2.09501      .   S
    N244   O247      1.02478      .   S
    Zr7    O247      1.98591      .   S
    N248   O249      1.05545      .   S
    Zr43   O249      2.04808      .   S
    N248   O250      1.07830      .   S
    Zr0    O250      2.09767      .   S
    N248   O251      1.06044      .   S
    Zr6    O251      2.09269      .   S
    N252   O253      1.03111  1_556   S
    Zr2    O253      1.99544  1_655   S
    N252   O254      1.01980      .   S
    Zr32   O254      2.02232  1_554   S
    N252   O255      1.08163      .   S
    Zr41   O255      2.09725  1_654   S
    N256   O257      1.03103  1_554   S
    Zr18   O257      1.99529      .   S
    N256   O258      1.01980      .   S
    Zr34   O258      2.02230      .   S
    N256   O259      1.08162      .   S
    Zr42   O259      2.09718      .   S
    N260   O261      1.07830      .   S
    Zr9    O261      2.10621      .   S
    N260   O262      1.04844      .   S
    Zr5    O262      2.05951      .   S
    N260   O263      1.05661      .   S
    Zr36   O263      2.05401  1_545   S
    N264   O265      1.04844      .   S
    Zr6    O265      2.05950      .   S
    N264   O266      1.07830      .   S
    Zr10   O266      2.10619      .   S
    N264   O267      1.05666      .   S
    Zr39   O267      2.05414      .   S
    N268   O269      1.05544      .   S
    Zr42   O269      2.04808  1_545   S
    N268   O270      1.07827      .   S
    Zr1    O270      2.09765      .   S
    N268   O271      1.06041      .   S
    Zr7    O271      2.09267      .   S
    N272   O273      1.04725      .   S
    Zr4    O273      2.04403      .   S
    N272   O274      1.06301  1_455   S
    Zr2    O274      2.06934      .   S
    N272   O275      1.06073      .   S
    Zr32   O275      2.06367      .   S
    N276   O277      1.05631      .   S
    Zr32   O277      2.05347  1_455   S
    N276   O278      1.04759      .   S
    Zr14   O278      2.05763      .   S
    N276   O279      1.07834      .   S
    Zr2    O279      2.10658      .   S
    N280   O281      1.05628      .   S
    Zr33   O281      2.05346  1_455   S
    N280   O282      1.04766      .   S
    Zr15   O282      2.05770      .   S
    N280   O283      1.07840      .   S
    Zr3    O283      2.10663      .   S
    N284   O285      1.05621      .   S
    Zr35   O285      2.05314      .   S
    N284   O286      1.04760      .   S
    Zr13   O286      2.05764      .   S
    N284   O287      1.07835      .   S
    Zr1    O287      2.10658      .   S
    N288   O289      1.05619      .   S
    Zr34   O289      2.05313      .   S
    N288   O290      1.04769      .   S
    Zr12   O290      2.05763      .   S
    N288   O291      1.07841      .   S
    Zr0    O291      2.10660      .   S
    N292   O293      1.05867      .   S
    Zr20   O293      2.07691      .   S
    N292   O294      1.07475      .   S
    Zr24   O294      2.09527      .   S
    N292   O295      1.02486      .   S
    Zr28   O295      1.98620      .   S
    N296   O297      1.07838      .   S
    Zr16   O297      2.10657      .   S
    N296   O298      1.04764      .   S
    Zr28   O298      2.05759      .   S
    N296   O299      1.05621      .   S
    Zr32   O299      2.05309  1_554   S
    N300   O301      1.05621      .   S
    Zr33   O301      2.05309  1_554   S
    N300   O302      1.07837      .   S
    Zr17   O302      2.10655      .   S
    N300   O303      1.04763      .   S
    Zr29   O303      2.05757      .   S
    N304   O305      1.01571      .   S
    Zr45   O305      2.01470      .   S
    N304   O306      1.05169      .   S
    Zr25   O306      2.03852      .   S
    N304   O307      1.04068      .   S
    Zr21   O307      2.01283      .   S
    N308   O309      1.01574      .   S
    Zr46   O309      2.01475      .   S
    N308   O310      1.05165      .   S
    Zr26   O310      2.03848      .   S
    N308   O311      1.04061      .   S
    Zr22   O311      2.01275      .   S
    N312   O313      1.01574      .   S
    Zr47   O313      2.01474      .   S
    N312   O314      1.05165      .   S
    Zr27   O314      2.03847      .   S
    N312   O315      1.04061      .   S
    Zr23   O315      2.01275      .   S
    N316   O317      1.06063      .   S
    Zr37   O317      2.06395      .   S
    N316   O318      1.04672      .   S
    Zr12   O318      2.04310      .   S
    N316   O319      1.06333      .   S
    Zr8    O319      2.06991      .   S
    N320   O321      1.04845      .   S
    Zr7    O321      2.05951      .   S
    N320   O322      1.07831      .   S
    Zr11   O322      2.10620      .   S
    N320   O323      1.05660      .   S
    Zr38   O323      2.05400  1_545   S
    N324   O325      1.04666      .   S
    Zr13   O325      2.04305      .   S
    N324   O326      1.06326      .   S
    Zr9    O326      2.06984      .   S
    N324   O327      1.06062  1_565   S
    Zr36   O327      2.06395      .   S
    N328   O329      1.01630      .   S
    Zr43   O329      2.01614  1_554   S
    N328   O330      1.05138      .   S
    Zr19   O330      2.03791      .   S
    N328   O331      1.04097      .   S
    Zr31   O331      2.01352      .   S
    N332   O333      1.04094      .   S
    Zr30   O333      2.01350      .   S
    N332   O334      1.01632      .   S
    Zr42   O334      2.01616  1_554   S
    N332   O335      1.05137      .   S
    Zr18   O335      2.03789      .   S
    N336   O337      1.04094      .   S
    Zr28   O337      2.01350      .   S
    N336   O338      1.01632      .   S
    Zr40   O338      2.01616  1_554   S
    N336   O339      1.05137      .   S
    Zr16   O339      2.03790      .   S
    N340   O341      1.04097      .   S
    Zr29   O341      2.01352      .   S
    N340   O342      1.01641      .   S
    Zr41   O342      2.01646  1_654   S
    N340   O343      1.05138      .   S
    Zr17   O343      2.03791      .   S
    N344   O345      1.02485      .   S
    Zr14   O345      1.98621      .   S
    N344   O346      1.07478      .   S
    Zr10   O346      2.09530      .   S
    N344   O347      1.05870      .   S
    Zr6    O347      2.07693      .   S
    N348   O349      1.05615      .   S
    Zr34   O349      2.05318  1_554   S
    N348   O350      1.04753      .   S
    Zr30   O350      2.05748      .   S
    N348   O351      1.07830      .   S
    Zr18   O351      2.10651      .   S
    N352   O353      1.05621      .   S
    Zr35   O353      2.05309  1_554   S
    N352   O354      1.04764      .   S
    Zr31   O354      2.05758      .   S
    N352   O355      1.07838      .   S
    Zr19   O355      2.10656      .   S
    N356   O357      1.05166      .   S
    Zr10   O357      2.03848      .   S
    N356   O358      1.01573      .   S
    Zr46   O358      2.01473      .   S
    N356   O359      1.04063      .   S
    Zr6    O359      2.01277      .   S
    N360   O361      1.01984      .   S
    Zr32   O361      2.02240  1_455   S
    N360   O362      1.03111  1_554   S
    Zr16   O362      1.99550  1_455   S
    N360   O363      1.08165      .   S
    Zr40   O363      2.09731  1_455   S
    N364   O365      1.08162      .   S
    Zr41   O365      2.09717      .   S
    N364   O366      1.01985      .   S
    Zr33   O366      2.02240  1_455   S
    N364   O367      1.03111  1_554   S
    Zr17   O367      1.99550  1_455   S
    N368   O369      1.03111  1_556   S
    Zr3    O369      1.99544  1_655   S
    N368   O370      1.01980      .   S
    Zr33   O370      2.02231  1_554   S
    N368   O371      1.08154      .   S
    Zr40   O371      2.09697  1_544   S
    N372   O373      1.04063      .   S
    Zr4    O373      2.01277      .   S
    N372   O374      1.01573      .   S
    Zr44   O374      2.01473      .   S
    N372   O375      1.05166      .   S
    Zr8    O375      2.03848      .   S
    N376   O377      1.05166      .   S
    Zr9    O377      2.03849      .   S
    N376   O378      1.01573      .   S
    Zr45   O378      2.01474      .   S
    N376   O379      1.04063      .   S
    Zr5    O379      2.01277      .   S
    N380   O381      1.05887      .   S
    Zr31   O381      2.07737      .   S
    N380   O382      1.07466      .   S
    Zr19   O382      2.09509      .   S
    N380   O383      1.02477      .   S
    Zr21   O383      1.98592      .   S
    N384   O385      1.04844      .   S
    Zr4    O385      2.05951      .   S
    N384   O386      1.07831      .   S
    Zr8    O386      2.10621      .   S
    N384   O387      1.05666      .   S
    Zr37   O387      2.05412      .   S
    N388   O389      1.03095      .   S
    Zr26   O389      1.99504      .   S
    N388   O390      1.01960      .   S
    Zr38   O390      2.02182      .   S
    N388   O391      1.08177      .   S
    Zr46   O391      2.09756      .   S
    N392   O393      1.03096      .   S
    Zr27   O393      1.99504      .   S
    N392   O394      1.01961      .   S
    Zr39   O394      2.02182      .   S
    N392   O395      1.08177      .   S
    Zr47   O395      2.09757      .   S
    N396   O397      1.02484      .   S
    Zr15   O397      1.98623      .   S
    N396   O398      1.07493      .   S
    Zr11   O398      2.09544      .   S
    N396   O399      1.05881      .   S
    Zr7    O399      2.07702      .   S
    N400   O401      1.06042      .   S
    Zr20   O401      2.09268      .   S
    N400   O402      1.07826      .   S
    Zr18   O402      2.09764      .   S
    N400   O403      1.05547      .   S
    Zr42   O403      2.04804  1_554   S
    N404   O405      1.06045      .   S
    Zr21   O405      2.09271      .   S
    N404   O406      1.07830      .   S
    Zr19   O406      2.09767      .   S
    N404   O407      1.05548      .   S
    Zr43   O407      2.04805  1_554   S
    N408   O409      1.06333      .   S
    Zr27   O409      2.06990      .   S
    N408   O410      1.04672      .   S
    Zr31   O410      2.04309      .   S
    N408   O411      1.06063      .   S
    Zr39   O411      2.06395      .   S
    N412   O413      1.04068      .   S
    Zr20   O413      2.01282      .   S
    N412   O414      1.01571      .   S
    Zr44   O414      2.01471      .   S
    N412   O415      1.05168      .   S
    Zr24   O415      2.03852      .   S
    N416   O417      1.05543      .   S
    Zr40   O417      2.04808  1_545   S
    N416   O418      1.07833      .   S
    Zr3    O418      2.09789  1_655   S
    N416   O419      1.06041      .   S
    Zr5    O419      2.09267      .   S
    N420   O421      1.05548      .   S
    Zr41   O421      2.04805  1_554   S
    N420   O422      1.07837      .   S
    Zr17   O422      2.09792  1_455   S
    N420   O423      1.06045      .   S
    Zr23   O423      2.09270      .   S
    N424   O425      1.05552      .   S
    Zr40   O425      2.04821  1_454   S
    N424   O426      1.06042      .   S
    Zr22   O426      2.09268      .   S
    N424   O427      1.07833      .   S
    Zr16   O427      2.09788  1_455   S
    N428   O429      1.03095  1_554   S
    Zr19   O429      1.99521      .   S
    N428   O430      1.01976      .   S
    Zr35   O430      2.02229      .   S
    N428   O431      1.08162      .   S
    Zr43   O431      2.09716      .   S
