# CIF file generated by openbabel 2.4.90, see http://openbabel.sf.net
data_I
_chemical_name_common ''
_cell_length_a 13.167
_cell_length_b 13.258
_cell_length_c 22.407
_cell_angle_alpha 89.986
_cell_angle_beta 89.981
_cell_angle_gamma 102.493
_space_group_name_H-M_alt 'P 1'
_space_group_name_Hall 'P 1'
loop_
    _symmetry_equiv_pos_as_xyz
    x,y,z
loop_
    _atom_site_label
    _atom_site_type_symbol
    _atom_site_fract_x
    _atom_site_fract_y
    _atom_site_fract_z
    _atom_site_occupancy
    Zn0     Zn   0.25316   0.14554   0.95348   1.000
    Zn1     Zn   0.77315   0.88080   0.32836   1.000
    Zn2     Zn   0.74681   0.85435   0.45348   1.000
    H3      H    0.10427   0.97727   0.73370   1.000
    H4      H    0.09863   0.96926   0.62251   1.000
    H5      H    0.33680   0.25026   0.61980   1.000
    H6      H    0.33210   0.24777   0.73000   1.000
    H7      H    0.48028   0.10864   0.45139   1.000
    H8      H    0.48764   0.11889   0.33940   1.000
    H9      H    0.97783   0.13198   0.33235   1.000
    H10     H    0.97195   0.12521   0.44374   1.000
    H11     H    0.36646   0.27208   0.16615   1.000
    H12     H    0.37014   0.27298   0.05432   1.000
    H13     H    0.13285   0.01057   0.04557   1.000
    H14     H    0.12050   0.99760   0.15640   1.000
    H15     H    0.23628   0.43293   0.77817   1.000
    H16     H    0.22742   0.61763   0.76460   1.000
    H17     H    0.27029   0.47654   0.96729   1.000
    H18     H    0.22473   0.78982   0.80936   1.000
    H19     H    0.26330   0.83445   0.99839   1.000
    H20     H    0.27622   0.65090   0.01150   1.000
    H21     H    0.90334   0.12425   0.81485   1.000
    H22     H    0.75251   0.15172   0.01696   1.000
    H23     H    0.93819   0.13835   0.00000   1.000
    H24     H    0.73179   0.12940   0.76854   1.000
    H25     H    0.54491   0.13566   0.78053   1.000
    H26     H    0.58077   0.15599   0.97073   1.000
    H27     H    0.89575   0.02262   0.23357   1.000
    H28     H    0.90128   0.03055   0.12235   1.000
    H29     H    0.66318   0.74951   0.11997   1.000
    H30     H    0.66798   0.75207   0.23212   1.000
    H31     H    0.51963   0.89124   0.95149   1.000
    Zn32    Zn   0.22689   0.11916   0.82830   1.000
    H33     H    0.51223   0.88108   0.83955   1.000
    H34     H    0.02203   0.86790   0.83221   1.000
    H35     H    0.02795   0.87463   0.94359   1.000
    H36     H    0.63340   0.72783   0.66623   1.000
    H37     H    0.62971   0.72689   0.55441   1.000
    H38     H    0.86693   0.98937   0.54546   1.000
    H39     H    0.87929   0.00236   0.65630   1.000
    H40     H    0.76382   0.56717   0.27810   1.000
    H41     H    0.77266   0.38249   0.26459   1.000
    H42     H    0.72967   0.52327   0.46729   1.000
    H43     H    0.77530   0.21022   0.30928   1.000
    H44     H    0.73658   0.16531   0.49831   1.000
    H45     H    0.72365   0.34885   0.51144   1.000
    H46     H    0.09676   0.87573   0.31485   1.000
    H47     H    0.24729   0.84807   0.51695   1.000
    H48     H    0.06165   0.86148   0.50492   1.000
    H49     H    0.26837   0.87058   0.26855   1.000
    H50     H    0.45524   0.86432   0.28055   1.000
    H51     H    0.41911   0.84384   0.47075   1.000
    C52     C    0.15465   0.03633   0.70699   1.000
    C53     C    0.15171   0.03206   0.64495   1.000
    C54     C    0.21788   0.10964   0.61298   1.000
    C55     C    0.28426   0.18889   0.64372   1.000
    C56     C    0.28246   0.18767   0.70560   1.000
    C57     C    0.12540   0.11304   0.51861   1.000
    C58     C    0.13260   0.12049   0.45285   1.000
    C59     C    0.22795   0.12066   0.42343   1.000
    C60     C    0.31884   0.11403   0.45554   1.000
    C61     C    0.31621   0.10642   0.52121   1.000
    C62     C    0.41152   0.11387   0.42560   1.000
    C63     C    0.41568   0.11970   0.36321   1.000
    C64     C    0.32707   0.12501   0.33050   1.000
    C65     C    0.23200   0.12563   0.35992   1.000
    C66     C    0.14041   0.12957   0.32760   1.000
    C67     C    0.04808   0.13045   0.35759   1.000
    C68     C    0.04439   0.12630   0.42012   1.000
    C69     C    0.14148   0.13125   0.26170   1.000
    C70     C    0.33332   0.12862   0.26477   1.000
    C71     C    0.24289   0.13450   0.16983   1.000
    C72     C    0.31366   0.21292   0.14095   1.000
    C73     C    0.31605   0.21365   0.07896   1.000
    C74     C    0.18368   0.06655   0.07386   1.000
    C75     C    0.17689   0.05992   0.13572   1.000
    C76     C    0.25469   0.33226   0.88117   1.000
    C77     C    0.25406   0.44469   0.87389   1.000
    C78     C    0.24246   0.48509   0.81616   1.000
    C79     C    0.23746   0.58697   0.80894   1.000
    C80     C    0.24400   0.65408   0.85892   1.000
    C81     C    0.25770   0.61397   0.91730   1.000
    C82     C    0.26196   0.50871   0.92324   1.000
    C83     C    0.23588   0.75838   0.85326   1.000
    C84     C    0.24170   0.82179   0.90280   1.000
    C85     C    0.25759   0.78249   0.96033   1.000
    C86     C    0.26505   0.68124   0.96725   1.000
    C87     C    0.23202   0.93193   0.89631   1.000
    C88     C    0.04062   0.11967   0.90223   1.000
    C89     C    0.92994   0.12924   0.90883   1.000
    C90     C    0.86888   0.12982   0.85864   1.000
    C91     C    0.76378   0.13719   0.86357   1.000
    C92     C    0.72076   0.14491   0.92194   1.000
    C93     C    0.78553   0.14534   0.97276   1.000
    C94     C    0.88758   0.13779   0.96643   1.000
    C95     C    0.69880   0.13525   0.81279   1.000
    C96     C    0.59588   0.13944   0.81908   1.000
    C97     C    0.55335   0.14747   0.87666   1.000
    C98     C    0.61517   0.15053   0.92691   1.000
    C99     C    0.44045   0.14942   0.88310   1.000
    C100    C    0.84536   0.96353   0.20690   1.000
    C101    C    0.84824   0.96776   0.14486   1.000
    C102    C    0.78205   0.89015   0.11290   1.000
    C103    C    0.71572   0.81091   0.14378   1.000
    C104    C    0.71758   0.81216   0.20566   1.000
    C105    C    0.87451   0.88681   0.01856   1.000
    C106    C    0.86730   0.87935   0.95279   1.000
    C107    C    0.77194   0.87920   0.92341   1.000
    C108    C    0.68106   0.88582   0.95556   1.000
    C109    C    0.68371   0.89343   0.02124   1.000
    C110    C    0.58838   0.88602   0.92567   1.000
    C111    C    0.58420   0.88022   0.86328   1.000
    C112    C    0.67280   0.87491   0.83050   1.000
    C113    C    0.76787   0.87426   0.85990   1.000
    C114    C    0.85945   0.87033   0.82754   1.000
    C115    C    0.95179   0.86943   0.85748   1.000
    C116    C    0.95550   0.87356   0.92001   1.000
    C117    C    0.85837   0.86868   0.76160   1.000
    C118    C    0.66656   0.87133   0.76479   1.000
    C119    C    0.75695   0.86543   0.66982   1.000
    C120    C    0.68618   0.78699   0.64099   1.000
    C121    C    0.68379   0.78624   0.57900   1.000
    C122    C    0.81612   0.93337   0.57380   1.000
    C123    C    0.82292   0.94002   0.63565   1.000
    C124    C    0.74533   0.66768   0.38110   1.000
    C125    C    0.74597   0.55527   0.37389   1.000
    C126    C    0.75761   0.51495   0.31614   1.000
    C127    C    0.76259   0.41308   0.30890   1.000
    C128    C    0.75600   0.34589   0.35887   1.000
    C129    C    0.74227   0.38592   0.41720   1.000
    C130    C    0.73802   0.49117   0.42322   1.000
    C131    C    0.76412   0.24159   0.35319   1.000
    C132    C    0.75827   0.17811   0.40275   1.000
    C133    C    0.74232   0.21733   0.46025   1.000
    C134    C    0.73487   0.31856   0.46720   1.000
    C135    C    0.76797   0.06799   0.39622   1.000
    C136    C    0.95936   0.88026   0.40224   1.000
    C137    C    0.07003   0.87067   0.40883   1.000
    C138    C    0.13116   0.87011   0.35865   1.000
    C139    C    0.23625   0.86273   0.36358   1.000
    C140    C    0.27919   0.85496   0.42195   1.000
    C141    C    0.21435   0.85449   0.47270   1.000
    C142    C    0.11231   0.86206   0.46643   1.000
    C143    C    0.30130   0.86470   0.31280   1.000
    C144    C    0.40421   0.86050   0.31910   1.000
    C145    C    0.44667   0.85245   0.37660   1.000
    C146    C    0.38477   0.84933   0.42690   1.000
    C147    C    0.55956   0.85052   0.38319   1.000
    N148    N    0.21885   0.11267   0.73679   1.000
    N149    N    0.21933   0.10970   0.54891   1.000
    N150    N    0.23867   0.13095   0.23395   1.000
    N151    N    0.25224   0.14202   0.04581   1.000
    N152    N    0.78119   0.88719   0.23670   1.000
    N153    N    0.78056   0.89007   0.04800   1.000
    N154    N    0.76119   0.86899   0.73393   1.000
    N155    N    0.74758   0.85787   0.54580   1.000
    O156    O    0.04484   0.11096   0.54663   1.000
    O157    O    0.39114   0.09784   0.55166   1.000
    O158    O    0.06426   0.13333   0.23140   1.000
    O159    O    0.41327   0.12872   0.23688   1.000
    O160    O    0.40904   0.16917   0.93470   1.000
    O161    O    0.38497   0.12930   0.83635   1.000
    O162    O    0.07473   0.11574   0.84920   1.000
    O163    O    0.09174   0.11577   0.95003   1.000
    O164    O    0.24845   0.98770   0.94300   1.000
    O165    O    0.20770   0.96141   0.84503   1.000
    O166    O    0.25403   0.29757   0.93432   1.000
    O167    O    0.25414   0.27982   0.83340   1.000
    O168    O    0.95508   0.88897   0.04650   1.000
    O169    O    0.60881   0.90209   0.05173   1.000
    O170    O    0.93558   0.86659   0.73131   1.000
    O171    O    0.58663   0.87125   0.73690   1.000
    O172    O    0.59094   0.83077   0.43478   1.000
    O173    O    0.61508   0.87065   0.33636   1.000
    O174    O    0.92529   0.88421   0.34923   1.000
    O175    O    0.90821   0.88415   0.45005   1.000
    O176    O    0.75157   0.01220   0.44297   1.000
    O177    O    0.79227   0.03854   0.34490   1.000
    O178    O    0.74598   0.70233   0.43433   1.000
    O179    O    0.74588   0.72015   0.33349   1.000
loop_
    _geom_bond_atom_site_label_1
    _geom_bond_atom_site_label_2
    _geom_bond_distance
    _geom_bond_site_symmetry_2
    _ccdc_geom_bond_type
    H23    C94       1.00410  1_554   S
    H20    C86       1.09182  1_554   S
    H22    C93       1.09211  1_554   S
    C105   O168      1.22698      .   S
    C105   N153      1.41062      .   S
    C105   C106      1.47875  1_554   S
    C109   N153      1.41883      .   S
    C109   O169      1.22515      .   S
    C109   C108      1.47508  1_554   S
    H13    C74       1.08915      .   S
    N151   C74       1.34898      .   S
    N151   C73       1.34717      .   S
    N151   Zn0       2.06932  1_554   S
    N153   C102      1.45435      .   S
    H12    C73       1.08997      .   S
    C74    C75       1.39049      .   S
    C73    C72       1.38934      .   S
    C102   C103      1.39559      .   S
    C102   C101      1.39425      .   S
    H29    C103      1.08753      .   S
    H28    C101      1.08772  1_545   S
    C75    H14       1.08758  1_545   S
    C75    C71       1.39499      .   S
    C72    H11       1.08715      .   S
    C72    C71       1.39585      .   S
    C103   C104      1.38681      .   S
    C101   C100      1.39142      .   S
    C71    N150      1.43816      .   S
    C104   H30       1.08954      .   S
    C104   N152      1.34731      .   S
    C100   H27       1.08936  1_565   S
    C100   N152      1.34658      .   S
    O158   C69       1.22804      .   S
    N150   C69       1.42333      .   S
    N150   C70       1.43114      .   S
    N152   Zn1       2.05730      .   S
    O159   C70       1.22383      .   S
    C69    C66       1.47680      .   S
    H41    C127      1.09142      .   S
    C70    C64       1.47527      .   S
    H49    C143      1.09180      .   S
    H40    C126      1.08982      .   S
    H50    C144      1.08854      .   S
    C127   C126      1.37596      .   S
    C127   C128      1.42153      .   S
    H43    C131      1.09055      .   S
    C143   C144      1.37546      .   S
    C143   C139      1.42081      .   S
    H46    C138      1.09029      .   S
    C126   C125      1.42102      .   S
    C144   C145      1.41778      .   S
    C66    C67       1.39118      .   S
    C66    C65       1.41748      .   S
    Zn1    O179      2.08509      .   S
    Zn1    O173      2.06410      .   S
    Zn1    O177      2.08495  1_565   S
    Zn1    O174      2.04822      .   S
    C64    C65       1.41613      .   S
    C64    C63       1.39268      .   S
    H9     C67       1.08815  1_655   S
    O179   C124      1.27260      .   S
    O173   C147      1.27342      .   S
    H8     C63       1.08940      .   S
    O177   C135      1.27716      .   S
    O174   C136      1.27490      .   S
    C131   C128      1.41547      .   S
    C131   C132      1.38524      .   S
    C67    C68       1.40259      .   S
    C138   C139      1.41251      .   S
    C138   C137      1.38351      .   S
    C128   C129      1.43677      .   S
    C65    C59       1.42502      .   S
    C63    C62       1.40049      .   S
    C139   C140      1.43753      .   S
    C125   C124      1.50099      .   S
    C125   C130      1.38419      .   S
    C145   C147      1.49953      .   S
    C145   C146      1.38604      .   S
    C124   O178      1.27760      .   S
    C147   O172      1.27382      .   S
    C135   C132      1.50004      .   S
    C135   O176      1.27340      .   S
    C136   C137      1.49718  1_655   S
    C136   O175      1.27223      .   S
    C132   C133      1.42187      .   S
    C137   C142      1.42008      .   S
    C129   C130      1.41499      .   S
    C129   C134      1.42263      .   S
    C68    H10       1.08805  1_455   S
    C68    C58       1.38997      .   S
    C140   C146      1.41257      .   S
    C140   C141      1.42096      .   S
    C130   H42       1.09029      .   S
    C59    C58       1.41747      .   S
    C59    C60       1.41543      .   S
    C62    H7        1.08902      .   S
    C62    C60       1.39279      .   S
    C146   H51       1.09073      .   S
    O178   Zn2       2.05847      .   S
    O172   Zn2       2.05139      .   S
    O176   Zn2       2.09330  1_545   S
    O175   Zn2       2.07721      .   S
    C58    C57       1.47841      .   S
    Zn2    N155      2.06913      .   S
    C60    C61       1.47478      .   S
    C133   C134      1.37568      .   S
    C133   H44       1.08891      .   S
    C142   C141      1.37596      .   S
    C142   H48       1.08917      .   S
    C134   H45       1.09152      .   S
    C141   H47       1.09302      .   S
    C57    O156      1.22758      .   S
    C57    N149      1.42018      .   S
    C61    N149      1.42746      .   S
    C61    O157      1.22507      .   S
    H38    C122      1.08928      .   S
    N155   C122      1.34899      .   S
    N155   C121      1.34717      .   S
    N149   C54       1.43574      .   S
    H37    C121      1.08992      .   S
    C122   C123      1.39038      .   S
    C121   C120      1.38937      .   S
    C54    C55       1.39485      .   S
    C54    C53       1.39352      .   S
    H5     C55       1.08806      .   S
    H4     C53       1.08771  1_565   S
    C123   H39       1.08774  1_565   S
    C123   C119      1.39506      .   S
    C120   H36       1.08710      .   S
    C120   C119      1.39593      .   S
    C55    C56       1.38677      .   S
    C53    C52       1.39151      .   S
    C119   N154      1.43801      .   S
    C56    H6        1.06587      .   S
    C56    N148      1.34820      .   S
    C52    H3        1.08914  1_545   S
    C52    N148      1.34738      .   S
    O170   C117      1.22749      .   S
    N154   C117      1.42284      .   S
    N154   C118      1.43110      .   S
    N148   Zn32      2.05409      .   S
    O171   C118      1.22394      .   S
    C117   C114      1.47771      .   S
    H16    C79       1.09222      .   S
    C118   C112      1.47489      .   S
    H24    C95       1.09186      .   S
    H15    C78       1.08879      .   S
    H25    C96       1.08850      .   S
    C79    C78       1.37599      .   S
    C79    C80       1.42148      .   S
    H18    C83       1.09051      .   S
    C95    C96       1.37547      .   S
    C95    C91       1.42075      .   S
    H21    C90       1.09013      .   S
    C78    C77       1.42082      .   S
    C96    C97       1.41946      .   S
    C114   C115      1.39114      .   S
    C114   C113      1.41743      .   S
    Zn32   O167      2.08537      .   S
    Zn32   O161      2.06454      .   S
    Zn32   O165      2.08547  1_545   S
    Zn32   O162      2.04817      .   S
    C112   C113      1.41642      .   S
    C112   C111      1.39298      .   S
    H34    C115      1.08809  1_455   S
    O167   C76       1.27564      .   S
    O161   C99       1.27220      .   S
    H33    C111      1.08897      .   S
    O165   C87       1.27663      .   S
    O162   C88       1.27523      .   S
    C83    C80       1.41547      .   S
    C83    C84       1.38475      .   S
    C115   C116      1.40265      .   S
    C90    C91       1.41251      .   S
    C90    C89       1.38365      .   S
    C80    C81       1.43801      .   S
    C113   C107      1.42508      .   S
    C111   C110      1.40055      .   S
    C91    C92       1.43756      .   S
    C77    C76       1.50123      .   S
    C77    C82       1.38436      .   S
    C97    C99       1.49918      .   S
    C97    C98       1.38509      .   S
    C76    O166      1.27588      .   S
    C99    O160      1.27402      .   S
    C87    C84       1.49999      .   S
    C87    O164      1.27258      .   S
    C88    C89       1.49719  1_455   S
    C88    O163      1.27216      .   S
    C84    C85       1.42267      .   S
    C89    C94       1.42011      .   S
    C81    C82       1.41489      .   S
    C81    C86       1.42158      .   S
    C116   H35       1.08804  1_655   S
    C116   C106      1.39002      .   S
    C92    C98       1.41260      .   S
    C92    C93       1.42217      .   S
    C82    H17       1.09007      .   S
    C107   C106      1.41757      .   S
    C107   C108      1.41539      .   S
    C110   H31       1.08895      .   S
    C110   C108      1.39275      .   S
    C98    H26       1.09017      .   S
    O166   Zn0       2.05842      .   S
    O160   Zn0       2.05160      .   S
    O164   Zn0       2.09332  1_565   S
    O163   Zn0       2.07759      .   S
    C85    C86       1.37567      .   S
    C85    H19       1.08876      .   S
    C94    C93       1.37612      .   S
    Zn32   Zn0       2.83872      .   S
    Zn1    Zn2       2.83716      .   S
