# CIF file generated by openbabel 2.4.90, see http://openbabel.sf.net
data_I
_chemical_name_common ''
_cell_length_a 13.167
_cell_length_b 13.258
_cell_length_c 22.407
_cell_angle_alpha 89.986
_cell_angle_beta 89.981
_cell_angle_gamma 102.493
_space_group_name_H-M_alt 'P 1'
_space_group_name_Hall 'P 1'
loop_
    _symmetry_equiv_pos_as_xyz
    x,y,z
loop_
    _atom_site_label
    _atom_site_type_symbol
    _atom_site_fract_x
    _atom_site_fract_y
    _atom_site_fract_z
    _atom_site_occupancy
    N0      N    0.24760   0.63320   0.88839   1.000
    N1      N    0.23093   0.12263   0.39144   1.000
    N2      N    0.76896   0.87725   0.89145   1.000
    N3      N    0.74149   0.13779   0.89249   1.000
    N4      N    0.25850   0.86212   0.39273   1.000
    N5      N    0.75240   0.36673   0.38835   1.000
    Zr6     Zr   0.75998   0.86758   0.39092   1.000
    O7      O    0.75903   0.86713   0.54323   1.000
    O8      O    0.76652   0.87410   0.23896   1.000
    Zr9     Zr   0.24002   0.13235   0.89089   1.000
    O10     O    0.24092   0.13278   0.04322   1.000
    O11     O    0.23346   0.12581   0.73894   1.000
    O12     O    0.09579   0.13163   0.89238   1.000
    O13     O    0.38501   0.13582   0.89062   1.000
    O14     O    0.24042   0.98784   0.89066   1.000
    O15     O    0.24367   0.27710   0.88939   1.000
    O16     O    0.90421   0.86829   0.39246   1.000
    O17     O    0.61499   0.86410   0.39070   1.000
    O18     O    0.75958   0.01209   0.39065   1.000
    O19     O    0.75633   0.72282   0.38940   1.000
loop_
    _geom_bond_atom_site_label_1
    _geom_bond_atom_site_label_2
    _geom_bond_distance
    _geom_bond_site_symmetry_2
    _ccdc_geom_bond_type
    Zr6    O7        3.41289      .   S
    N2     O7        7.80435      .   S
    Zr6    O8        3.40674      .   S
    N2     O8        7.78666  1_556   S
    Zr9    O10       3.41323  1_556   S
    N1     O10       7.80443      .   S
    Zr9    O11       3.40646      .   S
    N1     O11       7.78655      .   S
    N3     O12       4.68345  1_655   S
    Zr9    O12       1.89736      .   S
    N3     O13       4.68833      .   S
    Zr9    O13       1.89965      .   S
    Zr9    O14       1.91708  1_545   S
    N0     O14       4.72340      .   S
    Zr9    O15       1.90965      .   S
    N0     O15       4.71025      .   S
    Zr6    O16       1.89736      .   S
    N4     O16       4.68343  1_455   S
    Zr6    O17       1.89965      .   S
    N4     O17       4.68841      .   S
    Zr6    O18       1.91711  1_565   S
    N5     O18       4.72346      .   S
    Zr6    O19       1.90963      .   S
    N5     O19       4.71021      .   S
