# CIF file generated by openbabel 2.4.90, see http://openbabel.sf.net
data_I
_chemical_name_common ''
_cell_length_a 13.167
_cell_length_b 13.258
_cell_length_c 22.407
_cell_angle_alpha 89.986
_cell_angle_beta 89.981
_cell_angle_gamma 102.493
_space_group_name_H-M_alt 'P 1'
_space_group_name_Hall 'P 1'
loop_
    _symmetry_equiv_pos_as_xyz
    x,y,z
loop_
    _atom_site_label
    _atom_site_type_symbol
    _atom_site_fract_x
    _atom_site_fract_y
    _atom_site_fract_z
    _atom_site_occupancy
    N0      N    0.24760   0.63320   0.88839   1.000
    N1      N    0.23093   0.12263   0.39144   1.000
    N2      N    0.76896   0.87725   0.89145   1.000
    N3      N    0.74149   0.13779   0.89249   1.000
    N4      N    0.25850   0.86212   0.39273   1.000
    N5      N    0.75240   0.36673   0.38835   1.000
    Zr6     Zr   0.75998   0.86758   0.39092   1.000
    O7      O    0.75539   0.00879   0.40460   1.000
    O8      O    0.90149   0.86663   0.40658   1.000
    O9      O    0.61183   0.85996   0.40467   1.000
    O10     O    0.75469   0.72006   0.40352   1.000
    O11     O    0.75903   0.86713   0.54323   1.000
    O12     O    0.61814   0.86825   0.37673   1.000
    O13     O    0.76377   0.01539   0.37670   1.000
    O14     O    0.90692   0.86994   0.37834   1.000
    O15     O    0.76652   0.87410   0.23896   1.000
    O16     O    0.75797   0.72559   0.37528   1.000
    Zr17    Zr   0.24002   0.13235   0.89089   1.000
    O18     O    0.38816   0.13996   0.90459   1.000
    O19     O    0.09850   0.13329   0.90651   1.000
    O20     O    0.24461   0.99113   0.90460   1.000
    O21     O    0.24531   0.27986   0.90352   1.000
    O22     O    0.24092   0.13278   0.04322   1.000
    O23     O    0.24204   0.27435   0.87526   1.000
    O24     O    0.38187   0.13168   0.87665   1.000
    O25     O    0.09309   0.12998   0.87826   1.000
    O26     O    0.23623   0.98455   0.87671   1.000
    O27     O    0.23346   0.12581   0.73894   1.000
loop_
    _geom_bond_atom_site_label_1
    _geom_bond_atom_site_label_2
    _geom_bond_distance
    _geom_bond_site_symmetry_2
    _ccdc_geom_bond_type
    Zr6    O7        1.91103  1_565   S
    N5     O7        4.76810      .   S
    Zr6    O8        1.89890      .   S
    N4     O8        4.72420  1_455   S
    Zr6    O9        1.95561      .   S
    N4     O9        4.66635      .   S
    Zr6    O10       1.96230      .   S
    N5     O10       4.69038      .   S
    Zr6    O11       3.41289      .   S
    N2     O11       7.80435      .   S
    Zr6    O12       1.89643      .   S
    N4     O12       4.73192      .   S
    Zr6    O13       1.97529  1_565   S
    N5     O13       4.70005      .   S
    Zr6    O14       1.94863      .   S
    N4     O14       4.66412  1_455   S
    Zr6    O15       3.40674      .   S
    N2     O15       7.78666  1_556   S
    Zr6    O16       1.90943      .   S
    N5     O16       4.75139      .   S
    Zr17   O18       1.95554      .   S
    N3     O18       4.66638      .   S
    Zr17   O19       1.89863      .   S
    N3     O19       4.72456  1_655   S
    Zr17   O20       1.91106  1_545   S
    N0     O20       4.76803      .   S
    Zr17   O21       1.96247      .   S
    N0     O21       4.69029      .   S
    Zr17   O22       3.41323  1_556   S
    N1     O22       7.80443      .   S
    Zr17   O23       1.90938      .   S
    N0     O23       4.75158      .   S
    Zr17   O24       1.89651      .   S
    N3     O24       4.73174      .   S
    Zr17   O25       1.94895      .   S
    N3     O25       4.66380  1_655   S
    Zr17   O26       1.97519  1_545   S
    N0     O26       4.70001      .   S
    Zr17   O27       3.40646      .   S
    N1     O27       7.78655      .   S
