# CIF file generated by openbabel 2.4.90, see http://openbabel.sf.net
data_I
_chemical_name_common ''
_cell_length_a 14.647
_cell_length_b 20.817
_cell_length_c 16.596
_cell_angle_alpha 89.997
_cell_angle_beta 90.006
_cell_angle_gamma 90.004
_space_group_name_H-M_alt 'P 1'
_space_group_name_Hall 'P 1'
loop_
    _symmetry_equiv_pos_as_xyz
    x,y,z
loop_
    _atom_site_label
    _atom_site_type_symbol
    _atom_site_fract_x
    _atom_site_fract_y
    _atom_site_fract_z
    _atom_site_occupancy
    Ag0     Ag   0.81522   0.03535   0.30128   1.000
    Ag1     Ag   0.81523   0.53533   0.30129   1.000
    Ag2     Ag   0.06524   0.28534   0.19870   1.000
    Ag3     Ag   0.56523   0.28534   0.19870   1.000
    Ag4     Ag   0.56522   0.78533   0.19871   1.000
    Ag5     Ag   0.61938   0.36572   0.08472   1.000
    Ag6     Ag   0.61935   0.86570   0.08472   1.000
    Ag7     Ag   0.00000   0.36572   0.08472   1.000
    Ag8     Ag   0.36944   0.11570   0.41527   1.000
    Ag9     Ag   0.86943   0.11570   0.41527   1.000
    Ag10    Ag   0.86940   0.61570   0.41528   1.000
    P11     P    0.98922   0.05026   0.16210   1.000
    Ag12    Ag   0.31523   0.03535   0.30128   1.000
    P13     P    0.98922   0.55025   0.16211   1.000
    P14     P    0.48921   0.05027   0.16210   1.000
    P15     P    0.48921   0.55025   0.16211   1.000
    P16     P    0.23923   0.30025   0.33790   1.000
    P17     P    0.23922   0.80024   0.33790   1.000
    P18     P    0.73922   0.30025   0.33790   1.000
    P19     P    0.73921   0.80024   0.33790   1.000
    H20     H    0.06254   0.02952   0.29108   1.000
    H21     H    0.06254   0.52951   0.29109   1.000
    H22     H    0.56253   0.02952   0.29100   1.000
    H23     H    0.56253   0.52951   0.29109   1.000
    H24     H    0.09944   0.47397   0.21520   1.000
    H25     H    0.09945   0.97396   0.21519   1.000
    H26     H    0.59943   0.47397   0.21520   1.000
    H27     H    0.59944   0.97396   0.21519   1.000
    H28     H    0.44182   0.16133   0.14287   1.000
    H29     H    0.44181   0.66132   0.14287   1.000
    H30     H    0.94181   0.16133   0.14287   1.000
    H31     H    0.94180   0.66132   0.14287   1.000
    H32     H    0.46560   0.14346   0.24600   1.000
    H33     H    0.46559   0.64345   0.24603   1.000
    H34     H    0.96559   0.14346   0.24602   1.000
    H35     H    0.96558   0.64345   0.24603   1.000
    H36     H    0.06064   0.49907   0.04629   1.000
    H37     H    0.06064   0.99906   0.04628   1.000
    H38     H    0.56063   0.49906   0.04629   1.000
    H39     H    0.56063   0.99906   0.04628   1.000
    H40     H    0.00095   0.07034   0.01764   1.000
    H41     H    0.00094   0.57033   0.01765   1.000
    H42     H    0.50093   0.07034   0.01764   1.000
    H43     H    0.50093   0.57033   0.01760   1.000
    H44     H    0.26195   0.08276   0.12111   1.000
    H45     H    0.26195   0.58275   0.12112   1.000
    H46     H    0.76195   0.08276   0.12111   1.000
    H47     H    0.76194   0.58275   0.12112   1.000
    H48     H    0.20603   0.00725   0.11376   1.000
    H49     H    0.20602   0.50723   0.11377   1.000
    H50     H    0.70602   0.00725   0.11376   1.000
    H51     H    0.70601   0.50723   0.11377   1.000
    H52     H    0.06546   0.17456   0.04766   1.000
    H53     H    0.06546   0.67455   0.04767   1.000
    H54     H    0.56545   0.17456   0.04766   1.000
    H55     H    0.56545   0.67455   0.04767   1.000
    H56     H    0.18002   0.18032   0.08289   1.000
    H57     H    0.18002   0.68031   0.08290   1.000
    H58     H    0.68002   0.18033   0.08289   1.000
    H59     H    0.68001   0.68031   0.08290   1.000
    H60     H    0.12399   0.13897   0.29185   1.000
    H61     H    0.12399   0.63896   0.29186   1.000
    H62     H    0.62398   0.13897   0.29186   1.000
    H63     H    0.62398   0.63896   0.29186   1.000
    H64     H    0.21339   0.15920   0.22446   1.000
    H65     H    0.21339   0.65919   0.22446   1.000
    H66     H    0.71339   0.15920   0.22446   1.000
    H67     H    0.71338   0.65919   0.22446   1.000
    H68     H    0.31252   0.27952   0.20892   1.000
    H69     H    0.31251   0.77951   0.20892   1.000
    H70     H    0.81251   0.27952   0.20892   1.000
    H71     H    0.81250   0.77951   0.20892   1.000
    H72     H    0.34944   0.22397   0.28481   1.000
    H73     H    0.34944   0.72396   0.28480   1.000
    H74     H    0.84943   0.22397   0.28481   1.000
    H75     H    0.84943   0.72396   0.28482   1.000
    H76     H    0.19185   0.41132   0.35714   1.000
    H77     H    0.19183   0.91131   0.35713   1.000
    H78     H    0.69184   0.41132   0.35714   1.000
    H79     H    0.69182   0.91131   0.35713   1.000
    H80     H    0.21560   0.39346   0.25399   1.000
    H81     H    0.21559   0.89344   0.25398   1.000
    H82     H    0.71559   0.39346   0.25390   1.000
    H83     H    0.71558   0.89344   0.25398   1.000
    H84     H    0.31068   0.24905   0.45372   1.000
    H85     H    0.31067   0.74905   0.45372   1.000
    H86     H    0.81067   0.24905   0.45372   1.000
    H87     H    0.81066   0.74905   0.45372   1.000
    H88     H    0.25100   0.32031   0.48236   1.000
    H89     H    0.25098   0.82031   0.48236   1.000
    H90     H    0.75099   0.32031   0.48236   1.000
    H91     H    0.75097   0.82031   0.48236   1.000
    H92     H    0.01199   0.33273   0.37889   1.000
    H93     H    0.01197   0.83273   0.37889   1.000
    H94     H    0.51198   0.33273   0.37889   1.000
    H95     H    0.51196   0.83273   0.37889   1.000
    H96     H    0.45605   0.25722   0.38623   1.000
    H97     H    0.45604   0.75722   0.38620   1.000
    H98     H    0.95604   0.25722   0.38623   1.000
    H99     H    0.95603   0.75722   0.38624   1.000
    C100    C    0.11553   0.15391   0.08961   1.000
    C101    C    0.11552   0.65390   0.08961   1.000
    C102    C    0.61552   0.15391   0.08960   1.000
    C103    C    0.61551   0.65390   0.08961   1.000
    C104    C    0.14837   0.13342   0.22979   1.000
    H105    H    0.31552   0.42454   0.45234   1.000
    H106    H    0.31550   0.92453   0.45233   1.000
    H107    H    0.81551   0.42454   0.45234   1.000
    H108    H    0.81549   0.92453   0.45233   1.000
    H109    H    0.43007   0.43030   0.41711   1.000
    H110    H    0.43005   0.93030   0.41710   1.000
    H111    H    0.93006   0.43030   0.41711   1.000
    H112    H    0.93003   0.93030   0.41710   1.000
    H113    H    0.37398   0.38896   0.20815   1.000
    H114    H    0.37396   0.88895   0.20814   1.000
    H115    H    0.87397   0.38896   0.20815   1.000
    H116    H    0.87395   0.88895   0.20814   1.000
    H117    H    0.46340   0.40919   0.27555   1.000
    H118    H    0.46338   0.90918   0.27554   1.000
    H119    H    0.96339   0.40919   0.27555   1.000
    H120    H    0.96337   0.90918   0.27554   1.000
    C121    C    0.08377   0.02482   0.22769   1.000
    C122    C    0.08376   0.52481   0.22769   1.000
    C123    C    0.58376   0.02482   0.22769   1.000
    C124    C    0.58375   0.52481   0.22770   1.000
    C125    C    0.48954   0.13652   0.18363   1.000
    C126    C    0.48954   0.63650   0.18364   1.000
    C127    C    0.98954   0.13652   0.18363   1.000
    C128    C    0.98953   0.63650   0.18364   1.000
    C129    C    0.04595   0.04910   0.06399   1.000
    C130    C    0.04595   0.54909   0.06000   1.000
    C131    C    0.54594   0.04910   0.06390   1.000
    C132    C    0.54594   0.54909   0.06399   1.000
    C133    C    0.19587   0.05843   0.12726   1.000
    C134    C    0.19587   0.55842   0.12727   1.000
    C135    C    0.69587   0.05843   0.12720   1.000
    C136    C    0.69586   0.55842   0.12726   1.000
    C137    C    0.14837   0.63341   0.22980   1.000
    C138    C    0.64837   0.13342   0.22979   1.000
    C139    C    0.64836   0.63341   0.22980   1.000
    C140    C    0.33376   0.27481   0.27231   1.000
    C141    C    0.33375   0.77480   0.27231   1.000
    C142    C    0.83375   0.27481   0.27231   1.000
    C143    C    0.83374   0.77480   0.27230   1.000
    C144    C    0.23957   0.38651   0.31630   1.000
    C145    C    0.23955   0.88650   0.31637   1.000
    C146    C    0.73956   0.38651   0.31630   1.000
    C147    C    0.73955   0.88650   0.31637   1.000
    C148    C    0.29599   0.29908   0.43602   1.000
    C149    C    0.29597   0.79907   0.43600   1.000
    C150    C    0.79598   0.29908   0.43602   1.000
    C151    C    0.79596   0.79908   0.43601   1.000
    C152    C    0.44589   0.30841   0.37274   1.000
    C153    C    0.44588   0.80841   0.37274   1.000
    C154    C    0.94589   0.30841   0.37274   1.000
    C155    C    0.94587   0.80841   0.37274   1.000
    C156    C    0.36557   0.40388   0.41040   1.000
    C157    C    0.36555   0.90388   0.41000   1.000
    C158    C    0.86556   0.40388   0.41040   1.000
    C159    C    0.86554   0.90388   0.41039   1.000
    C160    C    0.39837   0.38341   0.27022   1.000
    C161    C    0.39836   0.88341   0.27021   1.000
    C162    C    0.89836   0.38341   0.27022   1.000
    C163    C    0.89835   0.88340   0.27021   1.000
    N164    N    0.16645   0.06469   0.21270   1.000
    N165    N    0.16644   0.56468   0.21270   1.000
    N166    N    0.66643   0.06469   0.21269   1.000
    N167    N    0.66642   0.56468   0.21270   1.000
    N168    N    0.13161   0.08636   0.06953   1.000
    N169    N    0.13160   0.58635   0.06954   1.000
    N170    N    0.63159   0.08636   0.06954   1.000
    N171    N    0.63159   0.58635   0.06955   1.000
    N172    N    0.08256   0.16398   0.17362   1.000
    N173    N    0.08256   0.66397   0.17363   1.000
    N174    N    0.58255   0.16398   0.17362   1.000
    N175    N    0.58255   0.66396   0.17362   1.000
    N176    N    0.41644   0.31468   0.28730   1.000
    N177    N    0.41643   0.81467   0.28730   1.000
    N178    N    0.91643   0.31468   0.28730   1.000
    N179    N    0.91642   0.81467   0.28730   1.000
    N180    N    0.38164   0.33634   0.43047   1.000
    N181    N    0.38163   0.83634   0.43046   1.000
    N182    N    0.88163   0.33634   0.43040   1.000
    N183    N    0.88162   0.83634   0.43046   1.000
    N184    N    0.33258   0.41397   0.32639   1.000
    N185    N    0.33256   0.91396   0.32638   1.000
    N186    N    0.83257   0.41397   0.32639   1.000
    N187    N    0.83255   0.91396   0.32638   1.000
    O188    O    0.39875   0.51638   0.17031   1.000
    O189    O    0.39875   0.00000   0.17031   1.000
    O190    O    0.89874   0.51638   0.17031   1.000
    O191    O    0.89874   0.00000   0.17031   1.000
    O192    O    0.14877   0.26638   0.32969   1.000
    O193    O    0.14876   0.76637   0.32969   1.000
    O194    O    0.64876   0.26638   0.32969   1.000
    O195    O    0.64875   0.76637   0.32969   1.000
loop_
    _geom_bond_atom_site_label_1
    _geom_bond_atom_site_label_2
    _geom_bond_distance
    _geom_bond_site_symmetry_2
    _ccdc_geom_bond_type
    H43    C132      1.10571      .   S
    H42    C131      1.10422      .   S
    H40    C129      1.10524      .   S
    H41    C130      1.06012      .   S
    H37    C129      1.10369  1_565   S
    H39    C131      1.10331  1_565   S
    H36    C130      1.08745      .   S
    H38    C132      1.10322      .   S
    H54    C102      1.09863      .   S
    H52    C100      1.09868      .   S
    H53    C101      1.09857      .   S
    H55    C103      1.09860      .   S
    C130   N169      1.48341      .   S
    C130   P13       1.88762  1_455   S
    C131   N170      1.47790      .   S
    C131   P14       1.82953      .   S
    C129   N168      1.47782      .   S
    C129   P11       1.82825  1_455   S
    C132   N171      1.47781      .   S
    C132   P15       1.82837      .   S
    N168   C100      1.46410      .   S
    N168   C133      1.46352      .   S
    N170   C102      1.46410      .   S
    N170   C135      1.46291      .   S
    N169   C101      1.46409      .   S
    N169   C134      1.46354      .   S
    N171   C103      1.46409      .   S
    N171   C136      1.46341      .   S
    H58    C102      1.09869      .   S
    H56    C100      1.09870      .   S
    H57    C101      1.09870      .   S
    H59    C103      1.09869      .   S
    Ag7    Ag2       2.70002      .   S
    Ag6    Ag4       2.64703      .   S
    Ag5    Ag3       2.64699      .   S
    C102   N174      1.49050      .   S
    C100   N172      1.49036      .   S
    C103   N175      1.49035      .   S
    C101   N173      1.49050      .   S
    H48    C133      1.09892      .   S
    H50    C135      1.09874      .   S
    H49    C134      1.09892      .   S
    H51    C136      1.09889      .   S
    H44    C133      1.09709      .   S
    H46    C135      1.09698      .   S
    H47    C136      1.09707      .   S
    H45    C134      1.09709      .   S
    C135   N166      1.48865      .   S
    C133   N164      1.48778      .   S
    C136   N167      1.48785      .   S
    C134   N165      1.48765      .   S
    H28    C125      1.10140      .   S
    H29    C126      1.10151      .   S
    H30    C127      1.10142      .   S
    H31    C128      1.10153      .   S
    P11    O191      1.69398      .   S
    P11    C127      1.83072      .   S
    P11    C121      1.83930  1_655   S
    P14    O189      1.69375      .   S
    P14    C125      1.83074      .   S
    P14    C123      1.83925      .   S
    P15    O188      1.50703      .   S
    P15    C126      1.83072      .   S
    P15    C124      1.83926      .   S
    P13    O190      1.50731      .   S
    P13    C128      1.83074      .   S
    P13    C122      1.83918  1_655   S
    O190   Ag1       2.52535      .   S
    N172   C127      1.48691  1_455   S
    N172   Ag2       2.57296      .   S
    N172   C104      1.48418      .   S
    N174   C125      1.48661      .   S
    N174   Ag3       2.57314      .   S
    N174   C138      1.48410      .   S
    N175   C126      1.48664      .   S
    N175   Ag4       2.57315      .   S
    N175   C139      1.48420      .   S
    N173   C128      1.48689  1_455   S
    N173   C137      1.48413      .   S
    C127   H34       1.10279      .   S
    C125   H32       1.10246      .   S
    C126   H33       1.10279      .   S
    C128   H35       1.10280      .   S
    Ag2    O192      2.52548      .   S
    Ag3    O194      2.52549      .   S
    Ag4    O195      2.52532      .   S
    H114   C161      1.09640      .   S
    H116   C163      1.09639      .   S
    H113   C160      1.09640      .   S
    H115   C162      1.09640      .   S
    H70    C142      1.10140      .   S
    H71    C143      1.10123      .   S
    H69    C141      1.10140      .   S
    H68    C140      1.10140      .   S
    N166   C123      1.48899      .   S
    N166   C138      1.48252      .   S
    N164   C121      1.48899      .   S
    N164   C104      1.48254      .   S
    N167   C124      1.48899      .   S
    N167   C139      1.48253      .   S
    N165   C122      1.48899      .   S
    N165   C137      1.48254      .   S
    H27    C123      1.10312  1_565   S
    H25    C121      1.10313  1_565   S
    H26    C124      1.10268      .   S
    H24    C122      1.10264      .   S
    H67    C139      1.09666      .   S
    H66    C138      1.09664      .   S
    H65    C137      1.09666      .   S
    H64    C104      1.09664      .   S
    C121   H20       1.10140      .   S
    C123   H22       1.10013      .   S
    C122   H21       1.10155      .   S
    C124   H23       1.10140      .   S
    C104   H60       1.09624      .   S
    C138   H62       1.09641      .   S
    C137   H61       1.09624      .   S
    C139   H63       1.09625      .   S
    H82    C146      1.10295      .   S
    H83    C147      1.10279      .   S
    H81    C145      1.10279      .   S
    H80    C144      1.10156      .   S
    C161   H118      1.09663      .   S
    C161   N177      1.48251      .   S
    C161   N185      1.48412      .   S
    C163   H120      1.09666      .   S
    C163   N179      1.48250      .   S
    C163   N187      1.48415      .   S
    C162   H119      1.09664      .   S
    C162   N178      1.48249      .   S
    C162   N186      1.48411      .   S
    C160   H117      1.09664      .   S
    C160   N176      1.48250      .   S
    C160   N184      1.48412      .   S
    C143   H75       1.10273      .   S
    C143   N179      1.48902      .   S
    C143   P19       1.83940      .   S
    C141   H73       1.10264      .   S
    C141   N177      1.48896      .   S
    C141   P17       1.83929      .   S
    C140   H72       1.10267      .   S
    C140   N176      1.48899      .   S
    C140   P16       1.83927      .   S
    C142   H74       1.10267      .   S
    C142   N178      1.48898      .   S
    C142   P18       1.83927      .   S
    N176   C152      1.48781      .   S
    N177   C153      1.48783      .   S
    N178   C154      1.48782      .   S
    N179   C155      1.48779      .   S
    Ag0    N187      2.57349  1_545   S
    Ag0    Ag9       2.64715      .   S
    Ag12   N185      2.57356  1_545   S
    Ag12   Ag8       2.64715      .   S
    Ag1    N186      2.57307      .   S
    Ag1    Ag10      2.64711      .   S
    C146   N186      1.48678      .   S
    C146   P18       1.83097      .   S
    C146   H78       1.10220      .   S
    C144   N184      1.48677      .   S
    C144   P16       1.83097      .   S
    C144   H76       1.10221      .   S
    C147   N187      1.48663      .   S
    C147   P19       1.83072      .   S
    C147   H79       1.10144      .   S
    C145   N185      1.48662      .   S
    C145   P17       1.83072      .   S
    C145   H77       1.10142      .   S
    N187   C159      1.49036      .   S
    N185   C157      1.48430      .   S
    N184   C156      1.49039      .   S
    N186   C158      1.49038      .   S
    O195   P19       1.50705      .   S
    O194   P18       1.50706      .   S
    O193   P17       1.50706      .   S
    O192   P16       1.50707      .   S
    P19    C151      1.82824      .   S
    P17    C149      1.82808      .   S
    P18    C150      1.82839      .   S
    P16    C148      1.82839      .   S
    C152   H94       1.09707      .   S
    C152   H96       1.09891      .   S
    C152   N180      1.46353      .   S
    C153   H95       1.09708      .   S
    C153   H97       1.09879      .   S
    C153   N181      1.46349      .   S
    C154   H92       1.09734  1_655   S
    C154   H98       1.09891      .   S
    C154   N182      1.46280      .   S
    C155   H93       1.09735  1_655   S
    C155   H99       1.09891      .   S
    C155   N183      1.46345      .   S
    C157   H110      1.09937      .   S
    C157   N181      1.46560      .   S
    C157   H106      1.10273      .   S
    C159   H112      1.09869      .   S
    C159   N183      1.46408      .   S
    C159   H108      1.09860      .   S
    C156   H109      1.09869      .   S
    C156   N180      1.46410      .   S
    C156   H105      1.09859      .   S
    C158   H111      1.09869      .   S
    C158   N182      1.46384      .   S
    C158   H107      1.09858      .   S
    N182   C150      1.47789      .   S
    N183   C151      1.47782      .   S
    N181   C149      1.47780      .   S
    N180   C148      1.47782      .   S
    C149   H85       1.10330      .   S
    C149   H89       1.10537      .   S
    C151   H87       1.10325      .   S
    C151   H91       1.10524      .   S
    C148   H84       1.10322      .   S
    C148   H88       1.10510      .   S
    C150   H86       1.10322      .   S
    C150   H90       1.10511      .   S
