# CIF file generated by openbabel 2.4.90, see http://openbabel.sf.net
data_I
_chemical_name_common ''
_cell_length_a 14.647
_cell_length_b 20.817
_cell_length_c 16.596
_cell_angle_alpha 89.997
_cell_angle_beta 90.006
_cell_angle_gamma 90.004
_space_group_name_H-M_alt 'P 1'
_space_group_name_Hall 'P 1'
loop_
    _symmetry_equiv_pos_as_xyz
    x,y,z
loop_
    _atom_site_label
    _atom_site_type_symbol
    _atom_site_fract_x
    _atom_site_fract_y
    _atom_site_fract_z
    _atom_site_occupancy
    Ag0     Ag   0.31524   0.53533   0.30129   1.000
    Ag1     Ag   0.06523   0.78533   0.19870   1.000
    Ag2     Ag   0.00000   0.86570   0.08472   1.000
    Ag3     Ag   0.36941   0.61570   0.41528   1.000
loop_
    _geom_bond_atom_site_label_1
    _geom_bond_atom_site_label_2
    _geom_bond_distance
    _geom_bond_site_symmetry_2
    _ccdc_geom_bond_type
    Ag2    Ag1       2.69996      .   S
    Ag0    Ag3       2.64713      .   S
