# CIF file generated by openbabel 2.4.90, see http://openbabel.sf.net
data_I
_chemical_name_common ''
_cell_length_a 14.647
_cell_length_b 20.817
_cell_length_c 16.596
_cell_angle_alpha 89.997
_cell_angle_beta 90.006
_cell_angle_gamma 90.004
_space_group_name_H-M_alt 'P 1'
_space_group_name_Hall 'P 1'
loop_
    _symmetry_equiv_pos_as_xyz
    x,y,z
loop_
    _atom_site_label
    _atom_site_type_symbol
    _atom_site_fract_x
    _atom_site_fract_y
    _atom_site_fract_z
    _atom_site_occupancy
    Ag0     Ag   0.36942   0.13428   0.91529   1.000
    Ag1     Ag   0.36945   0.63428   0.91528   1.000
    Ag2     Ag   0.86941   0.13428   0.91529   1.000
    Ag3     Ag   0.86944   0.63428   0.91528   1.000
    Ag4     Ag   0.61940   0.38429   0.58475   1.000
    Ag5     Ag   0.61938   0.88428   0.58474   1.000
    Ag6     Ag   0.00000   0.38429   0.58475   1.000
    Ag7     Ag   0.00000   0.88428   0.58474   1.000
    Ag8     Ag   0.06522   0.46465   0.69870   1.000
    Ag9     Ag   0.06521   0.96464   0.69870   1.000
    Ag10    Ag   0.56521   0.46465   0.69872   1.000
    Ag11    Ag   0.56520   0.96464   0.69873   1.000
    Ag12    Ag   0.31523   0.21465   0.80131   1.000
    Ag13    Ag   0.31521   0.71464   0.80130   1.000
    Ag14    Ag   0.81521   0.21465   0.80131   1.000
    Ag15    Ag   0.81520   0.71464   0.80130   1.000
    P16     P    0.23923   0.44973   0.83791   1.000
    P17     P    0.23922   0.94971   0.83791   1.000
    P18     P    0.73922   0.44972   0.83791   1.000
    P19     P    0.73920   0.94971   0.83791   1.000
    P20     P    0.98921   0.19974   0.66212   1.000
    P21     P    0.98921   0.69972   0.66212   1.000
    P22     P    0.48920   0.19973   0.66212   1.000
    P23     P    0.48920   0.69972   0.66212   1.000
    H24     H    0.59943   0.77601   0.71521   1.000
    H25     H    0.44179   0.08867   0.64289   1.000
    H26     H    0.44180   0.58866   0.64288   1.000
    H27     H    0.94178   0.08867   0.64289   1.000
    H28     H    0.31251   0.47046   0.70892   1.000
    H29     H    0.31250   0.97045   0.70893   1.000
    H30     H    0.81250   0.47046   0.70892   1.000
    H31     H    0.81249   0.97045   0.70893   1.000
    H32     H    0.34944   0.02602   0.78482   1.000
    H33     H    0.34944   0.52602   0.78481   1.000
    H34     H    0.84943   0.02602   0.78482   1.000
    H35     H    0.84944   0.52601   0.78482   1.000
    H36     H    0.19183   0.33866   0.85716   1.000
    H37     H    0.19181   0.83864   0.85715   1.000
    H38     H    0.69182   0.33865   0.85716   1.000
    H39     H    0.69180   0.83864   0.85715   1.000
    H40     H    0.21558   0.35653   0.75400   1.000
    H41     H    0.21556   0.85652   0.75399   1.000
    H42     H    0.71557   0.35653   0.75400   1.000
    H43     H    0.71556   0.85652   0.75399   1.000
    H44     H    0.31068   0.00092   0.95373   1.000
    H45     H    0.31069   0.50092   0.95370   1.000
    H46     H    0.81067   0.00092   0.95373   1.000
    H47     H    0.81068   0.50092   0.95373   1.000
    H48     H    0.25100   0.42966   0.98230   1.000
    H49     H    0.25098   0.92964   0.98237   1.000
    H50     H    0.75098   0.42966   0.98238   1.000
    H51     H    0.75097   0.92964   0.98237   1.000
    H52     H    0.01198   0.41725   0.87889   1.000
    H53     H    0.01196   0.91723   0.87889   1.000
    H54     H    0.51197   0.41725   0.87889   1.000
    H55     H    0.51195   0.91722   0.87800   1.000
    H56     H    0.45605   0.49276   0.88623   1.000
    H57     H    0.45604   0.99274   0.88624   1.000
    H58     H    0.95604   0.49276   0.88624   1.000
    H59     H    0.95603   0.99274   0.88624   1.000
    H60     H    0.31550   0.32544   0.95236   1.000
    H61     H    0.31547   0.82542   0.95235   1.000
    H62     H    0.81548   0.32544   0.95236   1.000
    H63     H    0.81546   0.82542   0.95235   1.000
    H64     H    0.43005   0.31968   0.91712   1.000
    H65     H    0.43002   0.81965   0.91710   1.000
    H66     H    0.93004   0.31968   0.91712   1.000
    H67     H    0.93001   0.81966   0.91711   1.000
    H68     H    0.37395   0.36102   0.70816   1.000
    H69     H    0.37394   0.86101   0.70815   1.000
    H70     H    0.87394   0.36102   0.70816   1.000
    H71     H    0.87393   0.86101   0.70815   1.000
    H72     H    0.46337   0.34080   0.77555   1.000
    H73     H    0.46336   0.84078   0.77555   1.000
    H74     H    0.96336   0.34080   0.77555   1.000
    H75     H    0.96335   0.84078   0.77555   1.000
    H76     H    0.06253   0.22046   0.79111   1.000
    H77     H    0.06253   0.72045   0.79110   1.000
    H78     H    0.56252   0.22046   0.79111   1.000
    H79     H    0.56252   0.72045   0.79110   1.000
    H80     H    0.09944   0.27602   0.71522   1.000
    H81     H    0.09945   0.77601   0.71521   1.000
    H82     H    0.59944   0.27602   0.71522   1.000
    O83     O    0.39875   0.73359   0.67030   1.000
    O84     O    0.89873   0.23360   0.67033   1.000
    O85     O    0.89874   0.73359   0.67030   1.000
    H86     H    0.94179   0.58865   0.64288   1.000
    H87     H    0.46557   0.10653   0.74604   1.000
    H88     H    0.46558   0.60652   0.74600   1.000
    H89     H    0.96557   0.10653   0.74604   1.000
    H90     H    0.96557   0.60652   0.74604   1.000
    H91     H    0.06064   0.25094   0.54631   1.000
    H92     H    0.06064   0.75093   0.54630   1.000
    H93     H    0.56063   0.25094   0.54631   1.000
    H94     H    0.56063   0.75093   0.54630   1.000
    H95     H    0.00094   0.17968   0.51766   1.000
    H96     H    0.00094   0.67966   0.51766   1.000
    H97     H    0.50092   0.17967   0.51766   1.000
    H98     H    0.50093   0.67967   0.51766   1.000
    H99     H    0.26194   0.16726   0.62114   1.000
    H100    H    0.26194   0.66725   0.62113   1.000
    H101    H    0.76193   0.16725   0.62114   1.000
    H102    H    0.76193   0.66725   0.62113   1.000
    H103    H    0.20602   0.24276   0.61380   1.000
    H104    H    0.20602   0.74275   0.61379   1.000
    H105    H    0.70601   0.24276   0.61379   1.000
    H106    H    0.70601   0.74276   0.61379   1.000
    H107    H    0.06545   0.07546   0.54768   1.000
    H108    H    0.06544   0.57544   0.54768   1.000
    H109    H    0.56543   0.07545   0.54768   1.000
    H110    H    0.56544   0.57545   0.54767   1.000
    H111    H    0.18000   0.06969   0.58291   1.000
    H112    H    0.18000   0.56968   0.58291   1.000
    H113    H    0.67999   0.06969   0.58291   1.000
    H114    H    0.68000   0.56968   0.58290   1.000
    H115    H    0.12397   0.11102   0.79187   1.000
    H116    H    0.12397   0.61101   0.79187   1.000
    H117    H    0.62396   0.11102   0.79188   1.000
    H118    H    0.62397   0.61101   0.79187   1.000
    H119    H    0.21337   0.09080   0.72448   1.000
    H120    H    0.21337   0.59079   0.72447   1.000
    H121    H    0.71336   0.09080   0.72448   1.000
    H122    H    0.71337   0.59079   0.72447   1.000
    C123    C    0.33375   0.47517   0.77232   1.000
    C124    C    0.33375   0.97516   0.77232   1.000
    C125    C    0.83374   0.47517   0.77232   1.000
    C126    C    0.83373   0.97516   0.77232   1.000
    C127    C    0.23955   0.36347   0.81639   1.000
    C128    C    0.23953   0.86346   0.81638   1.000
    C129    C    0.73954   0.36347   0.81639   1.000
    C130    C    0.73952   0.86346   0.81638   1.000
    C131    C    0.29599   0.45090   0.93602   1.000
    C132    C    0.29597   0.95088   0.93603   1.000
    C133    C    0.79597   0.45090   0.93603   1.000
    C134    C    0.79596   0.95088   0.93602   1.000
    C135    C    0.44589   0.44157   0.87274   1.000
    C136    C    0.44588   0.94155   0.87275   1.000
    C137    C    0.94588   0.44157   0.87275   1.000
    C138    C    0.94587   0.94155   0.87275   1.000
    C139    C    0.36555   0.34609   0.91041   1.000
    C140    C    0.36553   0.84607   0.91041   1.000
    C141    C    0.86554   0.34609   0.91041   1.000
    C142    C    0.86552   0.84607   0.91041   1.000
    C143    C    0.39835   0.36657   0.77022   1.000
    C144    C    0.39834   0.86655   0.77022   1.000
    C145    C    0.89834   0.36657   0.77022   1.000
    C146    C    0.89833   0.86656   0.77022   1.000
    C147    C    0.08375   0.22518   0.72771   1.000
    C148    C    0.08376   0.72516   0.72771   1.000
    C149    C    0.58374   0.22518   0.72772   1.000
    C150    C    0.58375   0.72517   0.72771   1.000
    C151    C    0.48952   0.11348   0.68365   1.000
    C152    C    0.48953   0.61347   0.68364   1.000
    C153    C    0.98952   0.11348   0.68365   1.000
    C154    C    0.98952   0.61347   0.68365   1.000
    C155    C    0.04594   0.20091   0.56401   1.000
    C156    C    0.04594   0.70090   0.56401   1.000
    C157    C    0.54593   0.20091   0.56401   1.000
    C158    C    0.54593   0.70090   0.56401   1.000
    C159    C    0.19586   0.19158   0.62729   1.000
    C160    C    0.19586   0.69157   0.62728   1.000
    C161    C    0.69586   0.19158   0.62728   1.000
    C162    C    0.69586   0.69157   0.62728   1.000
    C163    C    0.11551   0.09611   0.58963   1.000
    C164    C    0.11551   0.59609   0.58962   1.000
    C165    C    0.61550   0.09610   0.58962   1.000
    C166    C    0.61550   0.59610   0.58962   1.000
    C167    C    0.14835   0.11658   0.72980   1.000
    C168    C    0.14836   0.61656   0.72980   1.000
    C169    C    0.64834   0.11657   0.72981   1.000
    C170    C    0.64835   0.61656   0.72980   1.000
    N171    N    0.41643   0.43531   0.78731   1.000
    N172    N    0.41641   0.93529   0.78730   1.000
    N173    N    0.91642   0.43531   0.78731   1.000
    N174    N    0.91641   0.93529   0.78731   1.000
    N175    N    0.38164   0.41364   0.93047   1.000
    N176    N    0.38161   0.91362   0.93047   1.000
    N177    N    0.88162   0.41364   0.93047   1.000
    N178    N    0.88161   0.91362   0.93047   1.000
    N179    N    0.33256   0.33602   0.82640   1.000
    N180    N    0.33254   0.83600   0.82639   1.000
    N181    N    0.83254   0.33602   0.82640   1.000
    N182    N    0.83253   0.83600   0.82639   1.000
    N183    N    0.16643   0.18532   0.71273   1.000
    N184    N    0.16643   0.68530   0.71272   1.000
    N185    N    0.66641   0.18531   0.71272   1.000
    N186    N    0.66642   0.68530   0.71272   1.000
    N187    N    0.13159   0.16366   0.56950   1.000
    N188    N    0.13159   0.66364   0.56956   1.000
    N189    N    0.63157   0.16365   0.56950   1.000
    N190    N    0.63158   0.66364   0.56955   1.000
    N191    N    0.08253   0.08602   0.67364   1.000
    N192    N    0.08254   0.58601   0.67363   1.000
    N193    N    0.58252   0.08603   0.67364   1.000
    N194    N    0.58253   0.58601   0.67363   1.000
    O195    O    0.14876   0.98361   0.82970   1.000
    O196    O    0.14877   0.48359   0.82970   1.000
    O197    O    0.64875   0.98361   0.82970   1.000
    O198    O    0.64876   0.48359   0.82970   1.000
    O199    O    0.39875   0.23360   0.67033   1.000
loop_
    _geom_bond_atom_site_label_1
    _geom_bond_atom_site_label_2
    _geom_bond_distance
    _geom_bond_site_symmetry_2
    _ccdc_geom_bond_type
    H96    C156      1.10521      .   S
    H95    C155      1.10521      .   S
    H97    C157      1.10524      .   S
    H98    C158      1.10522      .   S
    H92    C156      1.10329      .   S
    H94    C158      1.10328      .   S
    H91    C155      1.10324      .   S
    H93    C157      1.10325      .   S
    H110   C166      1.09869      .   S
    H107   C163      1.09867      .   S
    H108   C164      1.09860      .   S
    H109   C165      1.09862      .   S
    C155   N187      1.47775      .   S
    C155   P20       1.82825  1_455   S
    C156   N188      1.47781      .   S
    C156   P21       1.82823  1_455   S
    C157   N189      1.47773      .   S
    C157   P22       1.82821      .   S
    C158   N190      1.47780      .   S
    C158   P23       1.82824      .   S
    N189   C165      1.46431      .   S
    N189   C161      1.46416      .   S
    N187   C163      1.46431      .   S
    N187   C159      1.46410      .   S
    N190   C166      1.46412      .   S
    N190   C162      1.46353      .   S
    N188   C164      1.46406      .   S
    N188   C160      1.46345      .   S
    H114   C166      1.09870      .   S
    H113   C165      1.09868      .   S
    H112   C164      1.09869      .   S
    H111   C163      1.09869      .   S
    Ag5    Ag11      2.64723      .   S
    Ag7    Ag9       2.69955      .   S
    Ag4    Ag10      2.64711      .   S
    Ag6    Ag8       2.69943      .   S
    C166   N194      1.49040      .   S
    C164   N192      1.49039      .   S
    C165   N193      1.49054      .   S
    C163   N191      1.49042      .   S
    H106   C162      1.09890      .   S
    H105   C161      1.09892      .   S
    H104   C160      1.09890      .   S
    H103   C159      1.09891      .   S
    H100   C160      1.09708      .   S
    H102   C162      1.09707      .   S
    H101   C161      1.09706      .   S
    H99    C159      1.09707      .   S
    C161   N185      1.48786      .   S
    C162   N186      1.48782      .   S
    C160   N184      1.48782      .   S
    C159   N183      1.48778      .   S
    H26    C152      1.10140      .   S
    H86    C154      1.10150      .   S
    H25    C151      1.10137      .   S
    H27    C153      1.10140      .   S
    P21    O85       1.50728      .   S
    P21    C154      1.83074      .   S
    P21    C148      1.83923  1_655   S
    P20    O84       1.50730      .   S
    P20    C153      1.83074      .   S
    P20    C147      1.83923  1_655   S
    P22    O199      1.50705      .   S
    P22    C151      1.83072      .   S
    P22    C149      1.83932      .   S
    P23    O83       1.50700      .   S
    P23    C152      1.83071      .   S
    P23    C150      1.83922      .   S
    O85    Ag15      2.52580      .   S
    O83    Ag13      2.52583      .   S
    O84    Ag14      2.52541      .   S
    O199   Ag12      2.52541      .   S
    N194   C152      1.48662      .   S
    N194   Ag10      2.57296      .   S
    N194   C170      1.48413      .   S
    N192   C154      1.48690  1_455   S
    N192   Ag8       2.57295      .   S
    N192   C168      1.48413      .   S
    N191   C153      1.48690  1_455   S
    N191   Ag9       2.57329  1_545   S
    N191   C167      1.48409      .   S
    N193   C151      1.48661      .   S
    N193   Ag11      2.57356  1_545   S
    N193   C169      1.48410      .   S
    C152   H88       1.10232      .   S
    C151   H87       1.10278      .   S
    C154   H90       1.10279      .   S
    C153   H89       1.10279      .   S
    Ag9    O195      2.52577      .   S
    Ag8    O196      2.52571      .   S
    Ag10   O198      2.52541      .   S
    Ag11   O197      2.52536      .   S
    H71    C146      1.09642      .   S
    H69    C144      1.09642      .   S
    H70    C145      1.09627      .   S
    H68    C143      1.09627      .   S
    H30    C125      1.10158      .   S
    H28    C123      1.10158      .   S
    H31    C126      1.10141      .   S
    H29    C124      1.10141      .   S
    N186   C150      1.48898      .   S
    N186   C170      1.48253      .   S
    N184   C148      1.48898      .   S
    N184   C168      1.48251      .   S
    N185   C149      1.48900      .   S
    N185   C169      1.48253      .   S
    N183   C147      1.48898      .   S
    N183   C167      1.48250      .   S
    H81    C148      1.10268      .   S
    H24    C150      1.10270      .   S
    H80    C147      1.10265      .   S
    H82    C149      1.10267      .   S
    H120   C168      1.09664      .   S
    H122   C170      1.09665      .   S
    H121   C169      1.09663      .   S
    H119   C167      1.09664      .   S
    C147   H76       1.10156      .   S
    C148   H77       1.10141      .   S
    C150   H79       1.10141      .   S
    C149   H78       1.10141      .   S
    C167   H115      1.09640      .   S
    C168   H116      1.09640      .   S
    C170   H118      1.09640      .   S
    C169   H117      1.09641      .   S
    H43    C130      1.10280      .   S
    H41    C128      1.10279      .   S
    H42    C129      1.10280      .   S
    H40    C127      1.10281      .   S
    C146   H75       1.09664      .   S
    C146   N174      1.48251      .   S
    C146   N182      1.48412      .   S
    C145   H74       1.09665      .   S
    C145   N173      1.48251      .   S
    C145   N181      1.48417      .   S
    C144   H73       1.09663      .   S
    C144   N172      1.48247      .   S
    C144   N180      1.48407      .   S
    C143   H72       1.09665      .   S
    C143   N171      1.48254      .   S
    C143   N179      1.48418      .   S
    C123   H33       1.10265      .   S
    C123   N171      1.48900      .   S
    C123   P16       1.83921      .   S
    C126   H34       1.10313  1_565   S
    C126   N174      1.48900      .   S
    C126   P19       1.83925      .   S
    C125   H35       1.10267      .   S
    C125   N173      1.48897      .   S
    C125   P18       1.83921      .   S
    C124   H32       1.10311  1_565   S
    C124   N172      1.48896      .   S
    C124   P17       1.83923      .   S
    N172   C136      1.48802      .   S
    N171   C135      1.48769      .   S
    N173   C137      1.48788      .   S
    N174   C138      1.48783      .   S
    Ag15   N182      2.57298      .   S
    Ag15   Ag3       2.64718      .   S
    Ag13   N180      2.57310      .   S
    Ag13   Ag1       2.64717      .   S
    Ag14   N181      2.57311      .   S
    Ag14   Ag2       2.64709      .   S
    Ag12   N179      2.57301      .   S
    Ag12   Ag0       2.64712      .   S
    C130   N182      1.48663      .   S
    C130   P19       1.83074      .   S
    C130   H39       1.10150      .   S
    C128   N180      1.48662      .   S
    C128   P17       1.83074      .   S
    C128   H37       1.10148      .   S
    C127   N179      1.48664      .   S
    C127   P16       1.83073      .   S
    C127   H36       1.10147      .   S
    C129   N181      1.48661      .   S
    C129   P18       1.83073      .   S
    C129   H38       1.10144      .   S
    N182   C142      1.49053      .   S
    N180   C140      1.49052      .   S
    N179   C139      1.49041      .   S
    N181   C141      1.49040      .   S
    O195   P17       1.50728      .   S
    O196   P16       1.50705      .   S
    O197   P19       1.50728      .   S
    O198   P18       1.50705      .   S
    P16    C131      1.82828      .   S
    P17    C132      1.82837      .   S
    P18    C133      1.82839      .   S
    P19    C134      1.82826      .   S
    C135   H54       1.09708      .   S
    C135   H56       1.09891      .   S
    C135   N175      1.46350      .   S
    C136   H55       1.09579      .   S
    C136   H57       1.09891      .   S
    C136   N176      1.46351      .   S
    C137   H52       1.09733  1_655   S
    C137   H58       1.09892      .   S
    C137   N177      1.46349      .   S
    C138   H53       1.09734  1_655   S
    C138   H59       1.09889      .   S
    C138   N178      1.46344      .   S
    C141   H66       1.09869      .   S
    C141   N177      1.46412      .   S
    C141   H62       1.09869      .   S
    C142   H67       1.09866      .   S
    C142   N178      1.46407      .   S
    C142   H63       1.09858      .   S
    C140   H65       1.09867      .   S
    C140   N176      1.46409      .   S
    C140   H61       1.09861      .   S
    C139   H64       1.09869      .   S
    C139   N175      1.46408      .   S
    C139   H60       1.09865      .   S
    N177   C133      1.47781      .   S
    N178   C134      1.47782      .   S
    N176   C132      1.47781      .   S
    N175   C131      1.47782      .   S
    C134   H46       1.10371  1_565   S
    C134   H51       1.10520      .   S
    C131   H45       1.10313      .   S
    C131   H48       1.10438      .   S
    C133   H47       1.10324      .   S
    C133   H50       1.10520      .   S
    C132   H44       1.10367  1_565   S
    C132   H49       1.10510      .   S
