# CIF file generated by openbabel 2.4.90, see http://openbabel.sf.net
data_I
_chemical_name_common ''
_cell_length_a 14.647
_cell_length_b 20.817
_cell_length_c 16.596
_cell_angle_alpha 89.997
_cell_angle_beta 90.006
_cell_angle_gamma 90.004
_space_group_name_H-M_alt 'P 1'
_space_group_name_Hall 'P 1'
loop_
    _symmetry_equiv_pos_as_xyz
    x,y,z
loop_
    _atom_site_label
    _atom_site_type_symbol
    _atom_site_fract_x
    _atom_site_fract_y
    _atom_site_fract_z
    _atom_site_occupancy
    Ag0     Ag   0.81522   0.03535   0.30128   1.000
    Ag1     Ag   0.81523   0.53533   0.30129   1.000
    Ag2     Ag   0.36942   0.13428   0.91529   1.000
    Ag3     Ag   0.36945   0.63428   0.91528   1.000
    Ag4     Ag   0.86941   0.13428   0.91529   1.000
    Ag5     Ag   0.86944   0.63428   0.91528   1.000
    Ag6     Ag   0.06524   0.28534   0.19870   1.000
    Ag7     Ag   0.56523   0.28534   0.19870   1.000
    Ag8     Ag   0.56522   0.78533   0.19871   1.000
    Ag9     Ag   0.61940   0.38429   0.58475   1.000
    Ag10    Ag   0.61938   0.88428   0.58474   1.000
    Ag11    Ag   0.00000   0.38429   0.58475   1.000
    Ag12    Ag   0.00000   0.88428   0.58474   1.000
    Ag13    Ag   0.06522   0.46465   0.69870   1.000
    Ag14    Ag   0.06521   0.96464   0.69870   1.000
    Ag15    Ag   0.56521   0.46465   0.69872   1.000
    Ag16    Ag   0.56520   0.96464   0.69873   1.000
    Ag17    Ag   0.61938   0.36572   0.08472   1.000
    Ag18    Ag   0.61935   0.86570   0.08472   1.000
    Ag19    Ag   0.00000   0.36572   0.08472   1.000
    Ag20    Ag   0.31523   0.21465   0.80131   1.000
    Ag21    Ag   0.31521   0.71464   0.80130   1.000
    Ag22    Ag   0.81521   0.21465   0.80131   1.000
    Ag23    Ag   0.81520   0.71464   0.80130   1.000
    Ag24    Ag   0.36944   0.11570   0.41527   1.000
    Ag25    Ag   0.86943   0.11570   0.41527   1.000
    Ag26    Ag   0.86940   0.61570   0.41528   1.000
    P27     P    0.98922   0.05026   0.16210   1.000
    Ag28    Ag   0.31523   0.03535   0.30128   1.000
    P29     P    0.98922   0.55025   0.16211   1.000
    P30     P    0.48921   0.05027   0.16210   1.000
    P31     P    0.48921   0.55025   0.16211   1.000
    P32     P    0.23923   0.30025   0.33790   1.000
    P33     P    0.23922   0.80024   0.33790   1.000
    P34     P    0.73922   0.30025   0.33790   1.000
    P35     P    0.73921   0.80024   0.33790   1.000
    P36     P    0.23923   0.44973   0.83791   1.000
    P37     P    0.23922   0.94971   0.83791   1.000
    P38     P    0.73922   0.44972   0.83791   1.000
    P39     P    0.73920   0.94971   0.83791   1.000
    P40     P    0.98921   0.19974   0.66212   1.000
    P41     P    0.98921   0.69972   0.66212   1.000
    P42     P    0.48920   0.19973   0.66212   1.000
    P43     P    0.48920   0.69972   0.66212   1.000
    H44     H    0.06254   0.02952   0.29108   1.000
    H45     H    0.06254   0.52951   0.29109   1.000
    H46     H    0.56253   0.02952   0.29100   1.000
    H47     H    0.56253   0.52951   0.29109   1.000
    H48     H    0.09944   0.47397   0.21520   1.000
    H49     H    0.09945   0.97396   0.21519   1.000
    H50     H    0.59943   0.47397   0.21520   1.000
    H51     H    0.59944   0.97396   0.21519   1.000
    H52     H    0.44182   0.16133   0.14287   1.000
    H53     H    0.44181   0.66132   0.14287   1.000
    H54     H    0.94181   0.16133   0.14287   1.000
    H55     H    0.94180   0.66132   0.14287   1.000
    H56     H    0.46560   0.14346   0.24600   1.000
    H57     H    0.46559   0.64345   0.24603   1.000
    H58     H    0.96559   0.14346   0.24602   1.000
    H59     H    0.96558   0.64345   0.24603   1.000
    H60     H    0.06064   0.49907   0.04629   1.000
    H61     H    0.06064   0.99906   0.04628   1.000
    H62     H    0.56063   0.49906   0.04629   1.000
    H63     H    0.56063   0.99906   0.04628   1.000
    H64     H    0.00095   0.07034   0.01764   1.000
    H65     H    0.00094   0.57033   0.01765   1.000
    H66     H    0.50093   0.07034   0.01764   1.000
    H67     H    0.50093   0.57033   0.01760   1.000
    H68     H    0.26195   0.08276   0.12111   1.000
    H69     H    0.26195   0.58275   0.12112   1.000
    H70     H    0.76195   0.08276   0.12111   1.000
    H71     H    0.76194   0.58275   0.12112   1.000
    H72     H    0.20603   0.00725   0.11376   1.000
    H73     H    0.20602   0.50723   0.11377   1.000
    H74     H    0.70602   0.00725   0.11376   1.000
    H75     H    0.70601   0.50723   0.11377   1.000
    H76     H    0.06546   0.17456   0.04766   1.000
    H77     H    0.06546   0.67455   0.04767   1.000
    H78     H    0.56545   0.17456   0.04766   1.000
    H79     H    0.56545   0.67455   0.04767   1.000
    H80     H    0.18002   0.18032   0.08289   1.000
    H81     H    0.18002   0.68031   0.08290   1.000
    H82     H    0.68002   0.18033   0.08289   1.000
    H83     H    0.68001   0.68031   0.08290   1.000
    H84     H    0.12399   0.13897   0.29185   1.000
    H85     H    0.12399   0.63896   0.29186   1.000
    H86     H    0.62398   0.13897   0.29186   1.000
    H87     H    0.62398   0.63896   0.29186   1.000
    H88     H    0.21339   0.15920   0.22446   1.000
    H89     H    0.21339   0.65919   0.22446   1.000
    H90     H    0.71339   0.15920   0.22446   1.000
    H91     H    0.71338   0.65919   0.22446   1.000
    H92     H    0.31252   0.27952   0.20892   1.000
    H93     H    0.31251   0.77951   0.20892   1.000
    H94     H    0.81251   0.27952   0.20892   1.000
    H95     H    0.81250   0.77951   0.20892   1.000
    H96     H    0.59943   0.77601   0.71521   1.000
    H97     H    0.44179   0.08867   0.64289   1.000
    H98     H    0.44180   0.58866   0.64288   1.000
    H99     H    0.94178   0.08867   0.64289   1.000
    H100    H    0.34944   0.22397   0.28481   1.000
    H101    H    0.34944   0.72396   0.28480   1.000
    H102    H    0.84943   0.22397   0.28481   1.000
    H103    H    0.84943   0.72396   0.28482   1.000
    H104    H    0.19185   0.41132   0.35714   1.000
    H105    H    0.19183   0.91131   0.35713   1.000
    H106    H    0.69184   0.41132   0.35714   1.000
    H107    H    0.69182   0.91131   0.35713   1.000
    H108    H    0.21560   0.39346   0.25399   1.000
    H109    H    0.21559   0.89344   0.25398   1.000
    H110    H    0.71559   0.39346   0.25390   1.000
    H111    H    0.71558   0.89344   0.25398   1.000
    H112    H    0.31068   0.24905   0.45372   1.000
    H113    H    0.31067   0.74905   0.45372   1.000
    H114    H    0.81067   0.24905   0.45372   1.000
    H115    H    0.81066   0.74905   0.45372   1.000
    H116    H    0.25100   0.32031   0.48236   1.000
    H117    H    0.25098   0.82031   0.48236   1.000
    H118    H    0.75099   0.32031   0.48236   1.000
    H119    H    0.75097   0.82031   0.48236   1.000
    H120    H    0.01199   0.33273   0.37889   1.000
    H121    H    0.01197   0.83273   0.37889   1.000
    H122    H    0.51198   0.33273   0.37889   1.000
    H123    H    0.51196   0.83273   0.37889   1.000
    H124    H    0.45605   0.25722   0.38623   1.000
    H125    H    0.45604   0.75722   0.38620   1.000
    H126    H    0.95604   0.25722   0.38623   1.000
    H127    H    0.95603   0.75722   0.38624   1.000
    C128    C    0.11553   0.15391   0.08961   1.000
    C129    C    0.11552   0.65390   0.08961   1.000
    C130    C    0.61552   0.15391   0.08960   1.000
    C131    C    0.61551   0.65390   0.08961   1.000
    C132    C    0.14837   0.13342   0.22979   1.000
    H133    H    0.31552   0.42454   0.45234   1.000
    H134    H    0.31550   0.92453   0.45233   1.000
    H135    H    0.81551   0.42454   0.45234   1.000
    H136    H    0.81549   0.92453   0.45233   1.000
    H137    H    0.43007   0.43030   0.41711   1.000
    H138    H    0.43005   0.93030   0.41710   1.000
    H139    H    0.93006   0.43030   0.41711   1.000
    H140    H    0.93003   0.93030   0.41710   1.000
    H141    H    0.37398   0.38896   0.20815   1.000
    H142    H    0.37396   0.88895   0.20814   1.000
    H143    H    0.87397   0.38896   0.20815   1.000
    H144    H    0.87395   0.88895   0.20814   1.000
    H145    H    0.46340   0.40919   0.27555   1.000
    H146    H    0.46338   0.90918   0.27554   1.000
    H147    H    0.96339   0.40919   0.27555   1.000
    H148    H    0.96337   0.90918   0.27554   1.000
    H149    H    0.31251   0.47046   0.70892   1.000
    H150    H    0.31250   0.97045   0.70893   1.000
    H151    H    0.81250   0.47046   0.70892   1.000
    H152    H    0.81249   0.97045   0.70893   1.000
    H153    H    0.34944   0.02602   0.78482   1.000
    H154    H    0.34944   0.52602   0.78481   1.000
    H155    H    0.84943   0.02602   0.78482   1.000
    H156    H    0.84944   0.52601   0.78482   1.000
    H157    H    0.19183   0.33866   0.85716   1.000
    H158    H    0.19181   0.83864   0.85715   1.000
    H159    H    0.69182   0.33865   0.85716   1.000
    H160    H    0.69180   0.83864   0.85715   1.000
    H161    H    0.21558   0.35653   0.75400   1.000
    H162    H    0.21556   0.85652   0.75399   1.000
    H163    H    0.71557   0.35653   0.75400   1.000
    H164    H    0.71556   0.85652   0.75399   1.000
    H165    H    0.31068   0.00092   0.95373   1.000
    H166    H    0.31069   0.50092   0.95370   1.000
    H167    H    0.81067   0.00092   0.95373   1.000
    H168    H    0.81068   0.50092   0.95373   1.000
    H169    H    0.25100   0.42966   0.98230   1.000
    H170    H    0.25098   0.92964   0.98237   1.000
    H171    H    0.75098   0.42966   0.98238   1.000
    H172    H    0.75097   0.92964   0.98237   1.000
    H173    H    0.01198   0.41725   0.87889   1.000
    H174    H    0.01196   0.91723   0.87889   1.000
    H175    H    0.51197   0.41725   0.87889   1.000
    H176    H    0.51195   0.91722   0.87800   1.000
    H177    H    0.45605   0.49276   0.88623   1.000
    H178    H    0.45604   0.99274   0.88624   1.000
    H179    H    0.95604   0.49276   0.88624   1.000
    H180    H    0.95603   0.99274   0.88624   1.000
    H181    H    0.31550   0.32544   0.95236   1.000
    H182    H    0.31547   0.82542   0.95235   1.000
    H183    H    0.81548   0.32544   0.95236   1.000
    H184    H    0.81546   0.82542   0.95235   1.000
    H185    H    0.43005   0.31968   0.91712   1.000
    H186    H    0.43002   0.81965   0.91710   1.000
    H187    H    0.93004   0.31968   0.91712   1.000
    H188    H    0.93001   0.81966   0.91711   1.000
    H189    H    0.37395   0.36102   0.70816   1.000
    H190    H    0.37394   0.86101   0.70815   1.000
    H191    H    0.87394   0.36102   0.70816   1.000
    H192    H    0.87393   0.86101   0.70815   1.000
    H193    H    0.46337   0.34080   0.77555   1.000
    H194    H    0.46336   0.84078   0.77555   1.000
    H195    H    0.96336   0.34080   0.77555   1.000
    H196    H    0.96335   0.84078   0.77555   1.000
    H197    H    0.06253   0.22046   0.79111   1.000
    H198    H    0.06253   0.72045   0.79110   1.000
    H199    H    0.56252   0.22046   0.79111   1.000
    H200    H    0.56252   0.72045   0.79110   1.000
    H201    H    0.09944   0.27602   0.71522   1.000
    H202    H    0.09945   0.77601   0.71521   1.000
    H203    H    0.59944   0.27602   0.71522   1.000
    O204    O    0.39875   0.73359   0.67030   1.000
    O205    O    0.89873   0.23360   0.67033   1.000
    O206    O    0.89874   0.73359   0.67030   1.000
    H207    H    0.94179   0.58865   0.64288   1.000
    H208    H    0.46557   0.10653   0.74604   1.000
    H209    H    0.46558   0.60652   0.74600   1.000
    H210    H    0.96557   0.10653   0.74604   1.000
    H211    H    0.96557   0.60652   0.74604   1.000
    H212    H    0.06064   0.25094   0.54631   1.000
    H213    H    0.06064   0.75093   0.54630   1.000
    H214    H    0.56063   0.25094   0.54631   1.000
    H215    H    0.56063   0.75093   0.54630   1.000
    H216    H    0.00094   0.17968   0.51766   1.000
    H217    H    0.00094   0.67966   0.51766   1.000
    H218    H    0.50092   0.17967   0.51766   1.000
    H219    H    0.50093   0.67967   0.51766   1.000
    H220    H    0.26194   0.16726   0.62114   1.000
    H221    H    0.26194   0.66725   0.62113   1.000
    H222    H    0.76193   0.16725   0.62114   1.000
    H223    H    0.76193   0.66725   0.62113   1.000
    H224    H    0.20602   0.24276   0.61380   1.000
    H225    H    0.20602   0.74275   0.61379   1.000
    H226    H    0.70601   0.24276   0.61379   1.000
    H227    H    0.70601   0.74276   0.61379   1.000
    H228    H    0.06545   0.07546   0.54768   1.000
    H229    H    0.06544   0.57544   0.54768   1.000
    H230    H    0.56543   0.07545   0.54768   1.000
    H231    H    0.56544   0.57545   0.54767   1.000
    H232    H    0.18000   0.06969   0.58291   1.000
    H233    H    0.18000   0.56968   0.58291   1.000
    H234    H    0.67999   0.06969   0.58291   1.000
    H235    H    0.68000   0.56968   0.58290   1.000
    H236    H    0.12397   0.11102   0.79187   1.000
    H237    H    0.12397   0.61101   0.79187   1.000
    H238    H    0.62396   0.11102   0.79188   1.000
    H239    H    0.62397   0.61101   0.79187   1.000
    H240    H    0.21337   0.09080   0.72448   1.000
    H241    H    0.21337   0.59079   0.72447   1.000
    H242    H    0.71336   0.09080   0.72448   1.000
    H243    H    0.71337   0.59079   0.72447   1.000
    C244    C    0.08377   0.02482   0.22769   1.000
    C245    C    0.08376   0.52481   0.22769   1.000
    C246    C    0.58376   0.02482   0.22769   1.000
    C247    C    0.58375   0.52481   0.22770   1.000
    C248    C    0.48954   0.13652   0.18363   1.000
    C249    C    0.48954   0.63650   0.18364   1.000
    C250    C    0.98954   0.13652   0.18363   1.000
    C251    C    0.98953   0.63650   0.18364   1.000
    C252    C    0.04595   0.04910   0.06399   1.000
    C253    C    0.04595   0.54909   0.06000   1.000
    C254    C    0.54594   0.04910   0.06390   1.000
    C255    C    0.54594   0.54909   0.06399   1.000
    C256    C    0.19587   0.05843   0.12726   1.000
    C257    C    0.19587   0.55842   0.12727   1.000
    C258    C    0.69587   0.05843   0.12720   1.000
    C259    C    0.69586   0.55842   0.12726   1.000
    C260    C    0.14837   0.63341   0.22980   1.000
    C261    C    0.64837   0.13342   0.22979   1.000
    C262    C    0.64836   0.63341   0.22980   1.000
    C263    C    0.33376   0.27481   0.27231   1.000
    C264    C    0.33375   0.77480   0.27231   1.000
    C265    C    0.83375   0.27481   0.27231   1.000
    C266    C    0.83374   0.77480   0.27230   1.000
    C267    C    0.23957   0.38651   0.31630   1.000
    C268    C    0.23955   0.88650   0.31637   1.000
    C269    C    0.73956   0.38651   0.31630   1.000
    C270    C    0.73955   0.88650   0.31637   1.000
    C271    C    0.29599   0.29908   0.43602   1.000
    C272    C    0.29597   0.79907   0.43600   1.000
    C273    C    0.79598   0.29908   0.43602   1.000
    C274    C    0.79596   0.79908   0.43601   1.000
    C275    C    0.44589   0.30841   0.37274   1.000
    C276    C    0.44588   0.80841   0.37274   1.000
    C277    C    0.94589   0.30841   0.37274   1.000
    C278    C    0.94587   0.80841   0.37274   1.000
    C279    C    0.36557   0.40388   0.41040   1.000
    C280    C    0.36555   0.90388   0.41000   1.000
    C281    C    0.86556   0.40388   0.41040   1.000
    C282    C    0.86554   0.90388   0.41039   1.000
    C283    C    0.39837   0.38341   0.27022   1.000
    C284    C    0.39836   0.88341   0.27021   1.000
    C285    C    0.89836   0.38341   0.27022   1.000
    C286    C    0.89835   0.88340   0.27021   1.000
    C287    C    0.33375   0.47517   0.77232   1.000
    C288    C    0.33375   0.97516   0.77232   1.000
    C289    C    0.83374   0.47517   0.77232   1.000
    C290    C    0.83373   0.97516   0.77232   1.000
    C291    C    0.23955   0.36347   0.81639   1.000
    C292    C    0.23953   0.86346   0.81638   1.000
    C293    C    0.73954   0.36347   0.81639   1.000
    C294    C    0.73952   0.86346   0.81638   1.000
    C295    C    0.29599   0.45090   0.93602   1.000
    C296    C    0.29597   0.95088   0.93603   1.000
    C297    C    0.79597   0.45090   0.93603   1.000
    C298    C    0.79596   0.95088   0.93602   1.000
    C299    C    0.44589   0.44157   0.87274   1.000
    C300    C    0.44588   0.94155   0.87275   1.000
    C301    C    0.94588   0.44157   0.87275   1.000
    C302    C    0.94587   0.94155   0.87275   1.000
    C303    C    0.36555   0.34609   0.91041   1.000
    C304    C    0.36553   0.84607   0.91041   1.000
    C305    C    0.86554   0.34609   0.91041   1.000
    C306    C    0.86552   0.84607   0.91041   1.000
    C307    C    0.39835   0.36657   0.77022   1.000
    C308    C    0.39834   0.86655   0.77022   1.000
    C309    C    0.89834   0.36657   0.77022   1.000
    C310    C    0.89833   0.86656   0.77022   1.000
    C311    C    0.08375   0.22518   0.72771   1.000
    C312    C    0.08376   0.72516   0.72771   1.000
    C313    C    0.58374   0.22518   0.72772   1.000
    C314    C    0.58375   0.72517   0.72771   1.000
    C315    C    0.48952   0.11348   0.68365   1.000
    C316    C    0.48953   0.61347   0.68364   1.000
    C317    C    0.98952   0.11348   0.68365   1.000
    C318    C    0.98952   0.61347   0.68365   1.000
    C319    C    0.04594   0.20091   0.56401   1.000
    C320    C    0.04594   0.70090   0.56401   1.000
    C321    C    0.54593   0.20091   0.56401   1.000
    C322    C    0.54593   0.70090   0.56401   1.000
    C323    C    0.19586   0.19158   0.62729   1.000
    C324    C    0.19586   0.69157   0.62728   1.000
    C325    C    0.69586   0.19158   0.62728   1.000
    C326    C    0.69586   0.69157   0.62728   1.000
    C327    C    0.11551   0.09611   0.58963   1.000
    C328    C    0.11551   0.59609   0.58962   1.000
    C329    C    0.61550   0.09610   0.58962   1.000
    C330    C    0.61550   0.59610   0.58962   1.000
    C331    C    0.14835   0.11658   0.72980   1.000
    C332    C    0.14836   0.61656   0.72980   1.000
    C333    C    0.64834   0.11657   0.72981   1.000
    C334    C    0.64835   0.61656   0.72980   1.000
    N335    N    0.16645   0.06469   0.21270   1.000
    N336    N    0.16644   0.56468   0.21270   1.000
    N337    N    0.66643   0.06469   0.21269   1.000
    N338    N    0.66642   0.56468   0.21270   1.000
    N339    N    0.13161   0.08636   0.06953   1.000
    N340    N    0.13160   0.58635   0.06954   1.000
    N341    N    0.63159   0.08636   0.06954   1.000
    N342    N    0.63159   0.58635   0.06955   1.000
    N343    N    0.08256   0.16398   0.17362   1.000
    N344    N    0.08256   0.66397   0.17363   1.000
    N345    N    0.58255   0.16398   0.17362   1.000
    N346    N    0.58255   0.66396   0.17362   1.000
    N347    N    0.41644   0.31468   0.28730   1.000
    N348    N    0.41643   0.81467   0.28730   1.000
    N349    N    0.91643   0.31468   0.28730   1.000
    N350    N    0.91642   0.81467   0.28730   1.000
    N351    N    0.38164   0.33634   0.43047   1.000
    N352    N    0.38163   0.83634   0.43046   1.000
    N353    N    0.88163   0.33634   0.43040   1.000
    N354    N    0.88162   0.83634   0.43046   1.000
    N355    N    0.33258   0.41397   0.32639   1.000
    N356    N    0.33256   0.91396   0.32638   1.000
    N357    N    0.83257   0.41397   0.32639   1.000
    N358    N    0.83255   0.91396   0.32638   1.000
    N359    N    0.41643   0.43531   0.78731   1.000
    N360    N    0.41641   0.93529   0.78730   1.000
    N361    N    0.91642   0.43531   0.78731   1.000
    N362    N    0.91641   0.93529   0.78731   1.000
    N363    N    0.38164   0.41364   0.93047   1.000
    N364    N    0.38161   0.91362   0.93047   1.000
    N365    N    0.88162   0.41364   0.93047   1.000
    N366    N    0.88161   0.91362   0.93047   1.000
    N367    N    0.33256   0.33602   0.82640   1.000
    N368    N    0.33254   0.83600   0.82639   1.000
    N369    N    0.83254   0.33602   0.82640   1.000
    N370    N    0.83253   0.83600   0.82639   1.000
    N371    N    0.16643   0.18532   0.71273   1.000
    N372    N    0.16643   0.68530   0.71272   1.000
    N373    N    0.66641   0.18531   0.71272   1.000
    N374    N    0.66642   0.68530   0.71272   1.000
    N375    N    0.13159   0.16366   0.56950   1.000
    N376    N    0.13159   0.66364   0.56956   1.000
    N377    N    0.63157   0.16365   0.56950   1.000
    N378    N    0.63158   0.66364   0.56955   1.000
    N379    N    0.08253   0.08602   0.67364   1.000
    N380    N    0.08254   0.58601   0.67363   1.000
    N381    N    0.58252   0.08603   0.67364   1.000
    N382    N    0.58253   0.58601   0.67363   1.000
    O383    O    0.39875   0.51638   0.17031   1.000
    O384    O    0.39875   0.00000   0.17031   1.000
    O385    O    0.89874   0.51638   0.17031   1.000
    O386    O    0.89874   0.00000   0.17031   1.000
    O387    O    0.14877   0.26638   0.32969   1.000
    O388    O    0.14876   0.76637   0.32969   1.000
    O389    O    0.64876   0.26638   0.32969   1.000
    O390    O    0.64875   0.76637   0.32969   1.000
    O391    O    0.14876   0.98361   0.82970   1.000
    O392    O    0.14877   0.48359   0.82970   1.000
    O393    O    0.64875   0.98361   0.82970   1.000
    O394    O    0.64876   0.48359   0.82970   1.000
    O395    O    0.39875   0.23360   0.67033   1.000
loop_
    _geom_bond_atom_site_label_1
    _geom_bond_atom_site_label_2
    _geom_bond_distance
    _geom_bond_site_symmetry_2
    _ccdc_geom_bond_type
    H67    C255      1.10571      .   S
    H66    C254      1.10422      .   S
    H64    C252      1.10524      .   S
    H65    C253      1.06012      .   S
    H61    C252      1.10369  1_565   S
    H63    C254      1.10331  1_565   S
    H60    C253      1.08745      .   S
    H62    C255      1.10322      .   S
    H78    C130      1.09863      .   S
    H76    C128      1.09868      .   S
    H77    C129      1.09857      .   S
    H79    C131      1.09860      .   S
    C253   N340      1.48341      .   S
    C253   P29       1.88762  1_455   S
    C254   N341      1.47790      .   S
    C254   P30       1.82953      .   S
    C252   N339      1.47782      .   S
    C252   P27       1.82825  1_455   S
    C255   N342      1.47781      .   S
    C255   P31       1.82837      .   S
    N339   C128      1.46410      .   S
    N339   C256      1.46352      .   S
    N341   C130      1.46410      .   S
    N341   C258      1.46291      .   S
    N340   C129      1.46409      .   S
    N340   C257      1.46354      .   S
    N342   C131      1.46409      .   S
    N342   C259      1.46341      .   S
    H82    C130      1.09869      .   S
    H80    C128      1.09870      .   S
    H81    C129      1.09870      .   S
    H83    C131      1.09869      .   S
    Ag19   Ag6       2.70002      .   S
    Ag18   Ag8       2.64703      .   S
    Ag17   Ag7       2.64699      .   S
    C130   N345      1.49050      .   S
    C128   N343      1.49036      .   S
    C131   N346      1.49035      .   S
    C129   N344      1.49050      .   S
    H72    C256      1.09892      .   S
    H74    C258      1.09874      .   S
    H73    C257      1.09892      .   S
    H75    C259      1.09889      .   S
    H68    C256      1.09709      .   S
    H70    C258      1.09698      .   S
    H71    C259      1.09707      .   S
    H69    C257      1.09709      .   S
    C258   N337      1.48865      .   S
    C256   N335      1.48778      .   S
    C259   N338      1.48785      .   S
    C257   N336      1.48765      .   S
    H52    C248      1.10140      .   S
    H53    C249      1.10151      .   S
    H54    C250      1.10142      .   S
    H55    C251      1.10153      .   S
    P27    O386      1.69398      .   S
    P27    C250      1.83072      .   S
    P27    C244      1.83930  1_655   S
    P30    O384      1.69375      .   S
    P30    C248      1.83074      .   S
    P30    C246      1.83925      .   S
    P31    O383      1.50703      .   S
    P31    C249      1.83072      .   S
    P31    C247      1.83926      .   S
    P29    O385      1.50731      .   S
    P29    C251      1.83074      .   S
    P29    C245      1.83918  1_655   S
    O385   Ag1       2.52535      .   S
    N343   C250      1.48691  1_455   S
    N343   Ag6       2.57296      .   S
    N343   C132      1.48418      .   S
    N345   C248      1.48661      .   S
    N345   Ag7       2.57314      .   S
    N345   C261      1.48410      .   S
    N346   C249      1.48664      .   S
    N346   Ag8       2.57315      .   S
    N346   C262      1.48420      .   S
    N344   C251      1.48689  1_455   S
    N344   C260      1.48413      .   S
    C250   H58       1.10279      .   S
    C248   H56       1.10246      .   S
    C249   H57       1.10279      .   S
    C251   H59       1.10280      .   S
    Ag6    O387      2.52548      .   S
    Ag7    O389      2.52549      .   S
    Ag8    O390      2.52532      .   S
    H142   C284      1.09640      .   S
    H144   C286      1.09639      .   S
    H141   C283      1.09640      .   S
    H143   C285      1.09640      .   S
    H94    C265      1.10140      .   S
    H95    C266      1.10123      .   S
    H93    C264      1.10140      .   S
    H92    C263      1.10140      .   S
    N337   C246      1.48899      .   S
    N337   C261      1.48252      .   S
    N335   C244      1.48899      .   S
    N335   C132      1.48254      .   S
    N338   C247      1.48899      .   S
    N338   C262      1.48253      .   S
    N336   C245      1.48899      .   S
    N336   C260      1.48254      .   S
    H51    C246      1.10312  1_565   S
    H49    C244      1.10313  1_565   S
    H50    C247      1.10268      .   S
    H48    C245      1.10264      .   S
    H91    C262      1.09666      .   S
    H90    C261      1.09664      .   S
    H89    C260      1.09666      .   S
    H88    C132      1.09664      .   S
    C244   H44       1.10140      .   S
    C246   H46       1.10013      .   S
    C245   H45       1.10155      .   S
    C247   H47       1.10140      .   S
    C132   H84       1.09624      .   S
    C261   H86       1.09641      .   S
    C260   H85       1.09624      .   S
    C262   H87       1.09625      .   S
    H110   C269      1.10295      .   S
    H111   C270      1.10279      .   S
    H109   C268      1.10279      .   S
    H108   C267      1.10156      .   S
    C284   H146      1.09663      .   S
    C284   N348      1.48251      .   S
    C284   N356      1.48412      .   S
    C286   H148      1.09666      .   S
    C286   N350      1.48250      .   S
    C286   N358      1.48415      .   S
    C285   H147      1.09664      .   S
    C285   N349      1.48249      .   S
    C285   N357      1.48411      .   S
    C283   H145      1.09664      .   S
    C283   N347      1.48250      .   S
    C283   N355      1.48412      .   S
    C266   H103      1.10273      .   S
    C266   N350      1.48902      .   S
    C266   P35       1.83940      .   S
    C264   H101      1.10264      .   S
    C264   N348      1.48896      .   S
    C264   P33       1.83929      .   S
    C263   H100      1.10267      .   S
    C263   N347      1.48899      .   S
    C263   P32       1.83927      .   S
    C265   H102      1.10267      .   S
    C265   N349      1.48898      .   S
    C265   P34       1.83927      .   S
    N347   C275      1.48781      .   S
    N348   C276      1.48783      .   S
    N349   C277      1.48782      .   S
    N350   C278      1.48779      .   S
    Ag0    N358      2.57349  1_545   S
    Ag0    Ag25      2.64715      .   S
    Ag28   N356      2.57356  1_545   S
    Ag28   Ag24      2.64715      .   S
    Ag1    N357      2.57307      .   S
    Ag1    Ag26      2.64711      .   S
    C269   N357      1.48678      .   S
    C269   P34       1.83097      .   S
    C269   H106      1.10220      .   S
    C267   N355      1.48677      .   S
    C267   P32       1.83097      .   S
    C267   H104      1.10221      .   S
    C270   N358      1.48663      .   S
    C270   P35       1.83072      .   S
    C270   H107      1.10144      .   S
    C268   N356      1.48662      .   S
    C268   P33       1.83072      .   S
    C268   H105      1.10142      .   S
    N358   C282      1.49036      .   S
    N356   C280      1.48430      .   S
    N355   C279      1.49039      .   S
    N357   C281      1.49038      .   S
    O390   P35       1.50705      .   S
    O389   P34       1.50706      .   S
    O388   P33       1.50706      .   S
    O387   P32       1.50707      .   S
    P35    C274      1.82824      .   S
    P33    C272      1.82808      .   S
    P34    C273      1.82839      .   S
    P32    C271      1.82839      .   S
    C275   H122      1.09707      .   S
    C275   H124      1.09891      .   S
    C275   N351      1.46353      .   S
    C276   H123      1.09708      .   S
    C276   H125      1.09879      .   S
    C276   N352      1.46349      .   S
    C277   H120      1.09734  1_655   S
    C277   H126      1.09891      .   S
    C277   N353      1.46280      .   S
    C278   H121      1.09735  1_655   S
    C278   H127      1.09891      .   S
    C278   N354      1.46345      .   S
    C280   H138      1.09937      .   S
    C280   N352      1.46560      .   S
    C280   H134      1.10273      .   S
    C282   H140      1.09869      .   S
    C282   N354      1.46408      .   S
    C282   H136      1.09860      .   S
    C279   H137      1.09869      .   S
    C279   N351      1.46410      .   S
    C279   H133      1.09859      .   S
    C281   H139      1.09869      .   S
    C281   N353      1.46384      .   S
    C281   H135      1.09858      .   S
    N353   C273      1.47789      .   S
    N354   C274      1.47782      .   S
    N352   C272      1.47780      .   S
    N351   C271      1.47782      .   S
    C272   H113      1.10330      .   S
    C272   H117      1.10537      .   S
    C274   H115      1.10325      .   S
    C274   H119      1.10524      .   S
    C271   H112      1.10322      .   S
    C271   H116      1.10510      .   S
    C273   H114      1.10322      .   S
    C273   H118      1.10511      .   S
    H217   C320      1.10521      .   S
    H216   C319      1.10521      .   S
    H218   C321      1.10524      .   S
    H219   C322      1.10522      .   S
    H213   C320      1.10329      .   S
    H215   C322      1.10328      .   S
    H212   C319      1.10324      .   S
    H214   C321      1.10325      .   S
    H231   C330      1.09869      .   S
    H228   C327      1.09867      .   S
    H229   C328      1.09860      .   S
    H230   C329      1.09862      .   S
    C319   N375      1.47775      .   S
    C319   P40       1.82825  1_455   S
    C320   N376      1.47781      .   S
    C320   P41       1.82823  1_455   S
    C321   N377      1.47773      .   S
    C321   P42       1.82821      .   S
    C322   N378      1.47780      .   S
    C322   P43       1.82824      .   S
    N377   C329      1.46431      .   S
    N377   C325      1.46416      .   S
    N375   C327      1.46431      .   S
    N375   C323      1.46410      .   S
    N378   C330      1.46412      .   S
    N378   C326      1.46353      .   S
    N376   C328      1.46406      .   S
    N376   C324      1.46345      .   S
    H235   C330      1.09870      .   S
    H234   C329      1.09868      .   S
    H233   C328      1.09869      .   S
    H232   C327      1.09869      .   S
    Ag10   Ag16      2.64723      .   S
    Ag12   Ag14      2.69955      .   S
    Ag9    Ag15      2.64711      .   S
    Ag11   Ag13      2.69943      .   S
    C330   N382      1.49040      .   S
    C328   N380      1.49039      .   S
    C329   N381      1.49054      .   S
    C327   N379      1.49042      .   S
    H227   C326      1.09890      .   S
    H226   C325      1.09892      .   S
    H225   C324      1.09890      .   S
    H224   C323      1.09891      .   S
    H221   C324      1.09708      .   S
    H223   C326      1.09707      .   S
    H222   C325      1.09706      .   S
    H220   C323      1.09707      .   S
    C325   N373      1.48786      .   S
    C326   N374      1.48782      .   S
    C324   N372      1.48782      .   S
    C323   N371      1.48778      .   S
    H98    C316      1.10140      .   S
    H207   C318      1.10150      .   S
    H97    C315      1.10137      .   S
    H99    C317      1.10140      .   S
    P41    O206      1.50728      .   S
    P41    C318      1.83074      .   S
    P41    C312      1.83923  1_655   S
    P40    O205      1.50730      .   S
    P40    C317      1.83074      .   S
    P40    C311      1.83923  1_655   S
    P42    O395      1.50705      .   S
    P42    C315      1.83072      .   S
    P42    C313      1.83932      .   S
    P43    O204      1.50700      .   S
    P43    C316      1.83071      .   S
    P43    C314      1.83922      .   S
    O206   Ag23      2.52580      .   S
    O204   Ag21      2.52583      .   S
    O205   Ag22      2.52541      .   S
    O395   Ag20      2.52541      .   S
    N382   C316      1.48662      .   S
    N382   Ag15      2.57296      .   S
    N382   C334      1.48413      .   S
    N380   C318      1.48690  1_455   S
    N380   Ag13      2.57295      .   S
    N380   C332      1.48413      .   S
    N379   C317      1.48690  1_455   S
    N379   Ag14      2.57329  1_545   S
    N379   C331      1.48409      .   S
    N381   C315      1.48661      .   S
    N381   Ag16      2.57356  1_545   S
    N381   C333      1.48410      .   S
    C316   H209      1.10232      .   S
    C315   H208      1.10278      .   S
    C318   H211      1.10279      .   S
    C317   H210      1.10279      .   S
    Ag14   O391      2.52577      .   S
    Ag13   O392      2.52571      .   S
    Ag15   O394      2.52541      .   S
    Ag16   O393      2.52536      .   S
    H192   C310      1.09642      .   S
    H190   C308      1.09642      .   S
    H191   C309      1.09627      .   S
    H189   C307      1.09627      .   S
    H151   C289      1.10158      .   S
    H149   C287      1.10158      .   S
    H152   C290      1.10141      .   S
    H150   C288      1.10141      .   S
    N374   C314      1.48898      .   S
    N374   C334      1.48253      .   S
    N372   C312      1.48898      .   S
    N372   C332      1.48251      .   S
    N373   C313      1.48900      .   S
    N373   C333      1.48253      .   S
    N371   C311      1.48898      .   S
    N371   C331      1.48250      .   S
    H202   C312      1.10268      .   S
    H96    C314      1.10270      .   S
    H201   C311      1.10265      .   S
    H203   C313      1.10267      .   S
    H241   C332      1.09664      .   S
    H243   C334      1.09665      .   S
    H242   C333      1.09663      .   S
    H240   C331      1.09664      .   S
    C311   H197      1.10156      .   S
    C312   H198      1.10141      .   S
    C314   H200      1.10141      .   S
    C313   H199      1.10141      .   S
    C331   H236      1.09640      .   S
    C332   H237      1.09640      .   S
    C334   H239      1.09640      .   S
    C333   H238      1.09641      .   S
    H164   C294      1.10280      .   S
    H162   C292      1.10279      .   S
    H163   C293      1.10280      .   S
    H161   C291      1.10281      .   S
    C310   H196      1.09664      .   S
    C310   N362      1.48251      .   S
    C310   N370      1.48412      .   S
    C309   H195      1.09665      .   S
    C309   N361      1.48251      .   S
    C309   N369      1.48417      .   S
    C308   H194      1.09663      .   S
    C308   N360      1.48247      .   S
    C308   N368      1.48407      .   S
    C307   H193      1.09665      .   S
    C307   N359      1.48254      .   S
    C307   N367      1.48418      .   S
    C287   H154      1.10265      .   S
    C287   N359      1.48900      .   S
    C287   P36       1.83921      .   S
    C290   H155      1.10313  1_565   S
    C290   N362      1.48900      .   S
    C290   P39       1.83925      .   S
    C289   H156      1.10267      .   S
    C289   N361      1.48897      .   S
    C289   P38       1.83921      .   S
    C288   H153      1.10311  1_565   S
    C288   N360      1.48896      .   S
    C288   P37       1.83923      .   S
    N360   C300      1.48802      .   S
    N359   C299      1.48769      .   S
    N361   C301      1.48788      .   S
    N362   C302      1.48783      .   S
    Ag23   N370      2.57298      .   S
    Ag23   Ag5       2.64718      .   S
    Ag21   N368      2.57310      .   S
    Ag21   Ag3       2.64717      .   S
    Ag22   N369      2.57311      .   S
    Ag22   Ag4       2.64709      .   S
    Ag20   N367      2.57301      .   S
    Ag20   Ag2       2.64712      .   S
    C294   N370      1.48663      .   S
    C294   P39       1.83074      .   S
    C294   H160      1.10150      .   S
    C292   N368      1.48662      .   S
    C292   P37       1.83074      .   S
    C292   H158      1.10148      .   S
    C291   N367      1.48664      .   S
    C291   P36       1.83073      .   S
    C291   H157      1.10147      .   S
    C293   N369      1.48661      .   S
    C293   P38       1.83073      .   S
    C293   H159      1.10144      .   S
    N370   C306      1.49053      .   S
    N368   C304      1.49052      .   S
    N367   C303      1.49041      .   S
    N369   C305      1.49040      .   S
    O391   P37       1.50728      .   S
    O392   P36       1.50705      .   S
    O393   P39       1.50728      .   S
    O394   P38       1.50705      .   S
    P36    C295      1.82828      .   S
    P37    C296      1.82837      .   S
    P38    C297      1.82839      .   S
    P39    C298      1.82826      .   S
    C299   H175      1.09708      .   S
    C299   H177      1.09891      .   S
    C299   N363      1.46350      .   S
    C300   H176      1.09579      .   S
    C300   H178      1.09891      .   S
    C300   N364      1.46351      .   S
    C301   H173      1.09733  1_655   S
    C301   H179      1.09892      .   S
    C301   N365      1.46349      .   S
    C302   H174      1.09734  1_655   S
    C302   H180      1.09889      .   S
    C302   N366      1.46344      .   S
    C305   H187      1.09869      .   S
    C305   N365      1.46412      .   S
    C305   H183      1.09869      .   S
    C306   H188      1.09866      .   S
    C306   N366      1.46407      .   S
    C306   H184      1.09858      .   S
    C304   H186      1.09867      .   S
    C304   N364      1.46409      .   S
    C304   H182      1.09861      .   S
    C303   H185      1.09869      .   S
    C303   N363      1.46408      .   S
    C303   H181      1.09865      .   S
    N365   C297      1.47781      .   S
    N366   C298      1.47782      .   S
    N364   C296      1.47781      .   S
    N363   C295      1.47782      .   S
    C298   H167      1.10371  1_565   S
    C298   H172      1.10520      .   S
    C295   H166      1.10313      .   S
    C295   H169      1.10438      .   S
    C297   H168      1.10324      .   S
    C297   H171      1.10520      .   S
    C296   H165      1.10367  1_565   S
    C296   H170      1.10510      .   S
