# CIF file generated by openbabel 2.4.90, see http://openbabel.sf.net
data_I
_chemical_name_common ''
_cell_length_a 14.647
_cell_length_b 20.817
_cell_length_c 16.596
_cell_angle_alpha 89.997
_cell_angle_beta 90.006
_cell_angle_gamma 90.004
_space_group_name_H-M_alt 'P 1'
_space_group_name_Hall 'P 1'
loop_
    _symmetry_equiv_pos_as_xyz
    x,y,z
loop_
    _atom_site_label
    _atom_site_type_symbol
    _atom_site_fract_x
    _atom_site_fract_y
    _atom_site_fract_z
    _atom_site_occupancy
    Ag0     Ag   0.36942   0.13428   0.91529   1.000
    Ag1     Ag   0.36945   0.63428   0.91528   1.000
    Ag2     Ag   0.86941   0.13428   0.91529   1.000
    Ag3     Ag   0.86944   0.63428   0.91528   1.000
    Ag4     Ag   0.61940   0.38429   0.58475   1.000
    Ag5     Ag   0.61938   0.88428   0.58474   1.000
    Ag6     Ag   0.00000   0.38429   0.58475   1.000
    Ag7     Ag   0.00000   0.88428   0.58474   1.000
    Ag8     Ag   0.06522   0.46465   0.69870   1.000
    Ag9     Ag   0.06521   0.96464   0.69870   1.000
    Ag10    Ag   0.56521   0.46465   0.69872   1.000
    Ag11    Ag   0.56520   0.96464   0.69873   1.000
    Ag12    Ag   0.31523   0.21465   0.80131   1.000
    Ag13    Ag   0.31521   0.71464   0.80130   1.000
    Ag14    Ag   0.81521   0.21465   0.80131   1.000
    Ag15    Ag   0.81520   0.71464   0.80130   1.000
    Ts16    Ts   0.07099   0.50510   0.69034   1.000
    Ts17    Ts   0.09307   0.47096   0.74237   1.000
    Ts18    Ts   0.07099   0.00510   0.69035   1.000
    Ts19    Ts   0.09306   0.97096   0.74237   1.000
    Ts20    Ts   0.57099   0.50510   0.69036   1.000
    Ts21    Ts   0.59306   0.47096   0.74238   1.000
    Ts22    Ts   0.57097   0.00510   0.69037   1.000
    Ts23    Ts   0.59305   0.97096   0.74239   1.000
    Ts24    Ts   0.32100   0.25511   0.80967   1.000
    Ts25    Ts   0.34307   0.22097   0.75765   1.000
    Ts26    Ts   0.34306   0.72096   0.75763   1.000
    Ts27    Ts   0.32099   0.75509   0.80966   1.000
    Ts28    Ts   0.84305   0.22097   0.75765   1.000
    Ts29    Ts   0.82099   0.25511   0.80967   1.000
    Ts30    Ts   0.84305   0.72096   0.75763   1.000
    Ts31    Ts   0.82098   0.75509   0.80966   1.000
loop_
    _geom_bond_atom_site_label_1
    _geom_bond_atom_site_label_2
    _geom_bond_distance
    _geom_bond_site_symmetry_2
    _ccdc_geom_bond_type
    Ag5    Ag11      2.64723      .   S
    Ag7    Ag9       2.69955      .   S
    Ag4    Ag10      2.64711      .   S
    Ag6    Ag8       2.69943      .   S
    Ag15   Ag3       2.64718      .   S
    Ag13   Ag1       2.64717      .   S
    Ag14   Ag2       2.64709      .   S
    Ag12   Ag0       2.64712      .   S
    Ag8    Ts16      0.85765      .   S
    Ag8    Ts17      0.84190      .   S
    Ag9    Ts18      0.85776  1_565   S
    Ag9    Ts19      0.84192      .   S
    Ag10   Ts20      0.85765      .   S
    Ag10   Ts21      0.84180      .   S
    Ag11   Ts22      0.85785  1_565   S
    Ag11   Ts23      0.84179      .   S
    Ag12   Ts24      0.85767      .   S
    Ag12   Ts25      0.84180      .   S
    Ag13   Ts26      0.84194      .   S
    Ag13   Ts27      0.85770      .   S
    Ag14   Ts28      0.84180      .   S
    Ag14   Ts29      0.85770      .   S
    Ag15   Ts30      0.84193      .   S
    Ag15   Ts31      0.85766      .   S
