# CIF file generated by openbabel 2.4.90, see http://openbabel.sf.net
data_I
_chemical_name_common ''
_cell_length_a 13.544
_cell_length_b 14.801
_cell_length_c 21.599
_cell_angle_alpha 89.493
_cell_angle_beta 89.904
_cell_angle_gamma 90.087
_space_group_name_H-M_alt 'P 1'
_space_group_name_Hall 'P 1'
loop_
    _symmetry_equiv_pos_as_xyz
    x,y,z
loop_
    _atom_site_label
    _atom_site_type_symbol
    _atom_site_fract_x
    _atom_site_fract_y
    _atom_site_fract_z
    _atom_site_occupancy
    H0      H    0.65877   0.47763   0.64870   1.000
    H1      H    0.83666   0.52231   0.64285   1.000
    H2      H    0.85864   0.36153   0.47709   1.000
    H3      H    0.67988   0.32924   0.48831   1.000
    H4      H    0.31909   0.46976   0.63434   1.000
    H5      H    0.13980   0.49382   0.61555   1.000
    H6      H    0.16651   0.32292   0.45561   1.000
    H7      H    0.34650   0.30740   0.48080   1.000
    H8      H    0.34080   0.98055   0.85040   1.000
    H9      H    0.16345   0.02598   0.85709   1.000
    H10     H    0.14184   0.86132   0.02305   1.000
    H11     H    0.32018   0.82840   0.01105   1.000
    H12     H    0.68193   0.97174   0.86451   1.000
    H13     H    0.86086   0.99620   0.88410   1.000
    H14     H    0.83255   0.82190   0.04438   1.000
    H15     H    0.65298   0.80605   0.01829   1.000
    H16     H    0.34126   0.52235   0.35128   1.000
    H17     H    0.16337   0.47767   0.35713   1.000
    H18     H    0.14139   0.63851   0.52286   1.000
    H19     H    0.32015   0.67079   0.51164   1.000
    H20     H    0.68095   0.53031   0.36563   1.000
    H21     H    0.86023   0.50624   0.38441   1.000
    H22     H    0.83351   0.67709   0.54438   1.000
    H23     H    0.65352   0.69261   0.51919   1.000
    H24     H    0.65921   0.01945   0.14951   1.000
    H25     H    0.83657   0.97404   0.14288   1.000
    H26     H    0.85819   0.13870   0.97692   1.000
    H27     H    0.67985   0.17161   0.98891   1.000
    H28     H    0.31811   0.02827   0.13540   1.000
    H29     H    0.13918   0.00382   0.11580   1.000
    H30     H    0.16748   0.17811   0.95559   1.000
    H31     H    0.34706   0.19395   0.98167   1.000
    H32     H    0.84005   0.51906   0.14955   1.000
    H33     H    0.66256   0.47373   0.14287   1.000
    H34     H    0.64251   0.63870   0.97705   1.000
    H35     H    0.82086   0.67165   0.98914   1.000
    H36     H    0.18123   0.52842   0.13547   1.000
    H37     H    0.36019   0.50388   0.11593   1.000
    H38     H    0.33353   0.67809   0.95560   1.000
    H39     H    0.15379   0.69389   0.98157   1.000
    H40     H    0.15949   0.02229   0.35134   1.000
    H41     H    0.33719   0.97768   0.35728   1.000
    H42     H    0.35860   0.13856   0.52299   1.000
    H43     H    0.18004   0.17084   0.51167   1.000
    H44     H    0.81955   0.03045   0.36568   1.000
    H45     H    0.64006   0.00655   0.38448   1.000
    H46     H    0.66672   0.17732   0.54447   1.000
    H47     H    0.84691   0.19273   0.51923   1.000
    H48     H    0.15998   0.48095   0.85043   1.000
    H49     H    0.33746   0.52629   0.85711   1.000
    H50     H    0.35753   0.36132   0.02290   1.000
    H51     H    0.17918   0.32836   0.01084   1.000
    H52     H    0.81880   0.47159   0.86451   1.000
    H53     H    0.63985   0.49613   0.88404   1.000
    H54     H    0.66650   0.32193   0.04438   1.000
    C55     C    0.31842   0.54780   0.08487   1.000
    C56     C    0.36199   0.58721   0.03230   1.000
    C57     C    0.30209   0.64381   0.99597   1.000
    C58     C    0.20281   0.65301   0.01014   1.000
    H59     H    0.84624   0.30612   0.01841   1.000
    H60     H    0.84058   0.97774   0.64864   1.000
    H61     H    0.66288   0.02237   0.64270   1.000
    H62     H    0.64139   0.86150   0.47700   1.000
    H63     H    0.81995   0.82918   0.48831   1.000
    H64     H    0.18044   0.96953   0.63433   1.000
    H65     H    0.35993   0.99346   0.61556   1.000
    H66     H    0.33334   0.82279   0.45551   1.000
    H67     H    0.15315   0.80733   0.48073   1.000
    C68     C    0.70627   0.45367   0.61156   1.000
    C69     C    0.80551   0.47748   0.60812   1.000
    C70     C    0.86343   0.44796   0.55830   1.000
    C71     C    0.81822   0.38945   0.51621   1.000
    C72     C    0.71823   0.37029   0.52220   1.000
    C73     C    0.28209   0.43795   0.59539   1.000
    C74     C    0.18166   0.45067   0.58448   1.000
    C75     C    0.20226   0.84742   0.50936   1.000
    C76     C    0.13808   0.41226   0.53217   1.000
    C77     C    0.19802   0.35649   0.49575   1.000
    C78     C    0.29743   0.34756   0.50943   1.000
    C79     C    0.29355   0.95594   0.88780   1.000
    C80     C    0.19455   0.98016   0.89173   1.000
    C81     C    0.13680   0.94951   0.94170   1.000
    C82     C    0.18209   0.89002   0.98374   1.000
    C83     C    0.28182   0.87045   0.97730   1.000
    C84     C    0.71846   0.93927   0.90373   1.000
    C85     C    0.81875   0.95226   0.91513   1.000
    C86     C    0.86187   0.91283   0.96767   1.000
    C87     C    0.80152   0.85620   0.00400   1.000
    C88     C    0.70233   0.84699   0.98978   1.000
    C89     C    0.29376   0.54632   0.38841   1.000
    C90     C    0.19452   0.52252   0.39186   1.000
    C91     C    0.13659   0.55206   0.44164   1.000
    C92     C    0.18181   0.61057   0.48370   1.000
    C93     C    0.28180   0.62974   0.47775   1.000
    C94     C    0.71794   0.56211   0.40458   1.000
    C95     C    0.81837   0.54938   0.41549   1.000
    C96     C    0.86195   0.58777   0.46781   1.000
    C97     C    0.80201   0.64352   0.50423   1.000
    C98     C    0.70260   0.65247   0.49055   1.000
    C99     C    0.70647   0.04407   0.11211   1.000
    C100    C    0.80546   0.01985   0.10824   1.000
    C101    C    0.86323   0.05051   0.05828   1.000
    C102    C    0.81794   0.11000   0.01623   1.000
    C103    C    0.71820   0.12957   0.02267   1.000
    C104    C    0.28158   0.06074   0.09624   1.000
    C105    C    0.18129   0.04776   0.08485   1.000
    C106    C    0.13816   0.08718   0.03230   1.000
    C107    C    0.19852   0.14381   0.99598   1.000
    C108    C    0.29770   0.15302   0.01019   1.000
    C109    C    0.79309   0.54379   0.11218   1.000
    C110    C    0.69402   0.51962   0.10828   1.000
    C111    C    0.63665   0.55036   0.05833   1.000
    C112    C    0.68239   0.60995   0.01636   1.000
    C113    C    0.78215   0.62951   0.02284   1.000
    C114    C    0.21811   0.56083   0.09624   1.000
    C115    C    0.20680   0.04631   0.38850   1.000
    C116    C    0.30595   0.02252   0.39199   1.000
    C117    C    0.36367   0.05210   0.44179   1.000
    C118    C    0.31834   0.11059   0.48387   1.000
    C119    C    0.21845   0.12975   0.47780   1.000
    C120    C    0.78249   0.06228   0.40463   1.000
    C121    C    0.68195   0.04965   0.41555   1.000
    C122    C    0.63830   0.08804   0.46789   1.000
    C123    C    0.69827   0.14375   0.50431   1.000
    C124    C    0.79778   0.15263   0.49062   1.000
    C125    C    0.20694   0.45622   0.88780   1.000
    C126    C    0.30601   0.48040   0.89170   1.000
    C127    C    0.36338   0.44965   0.94164   1.000
    C128    C    0.31764   0.39006   0.98362   1.000
    C129    C    0.21788   0.37050   0.97714   1.000
    C130    C    0.78192   0.43918   0.90373   1.000
    C131    C    0.68162   0.45221   0.91510   1.000
    C132    C    0.63804   0.41281   0.96764   1.000
    C133    C    0.69794   0.35621   0.00401   1.000
    C134    C    0.79722   0.34700   0.98984   1.000
    C135    C    0.79325   0.95373   0.61149   1.000
    C136    C    0.69410   0.97754   0.60800   1.000
    C137    C    0.63636   0.94796   0.55822   1.000
    C138    C    0.68166   0.88947   0.51610   1.000
    C139    C    0.78155   0.87028   0.52217   1.000
    C140    C    0.21752   0.93773   0.59537   1.000
    C141    C    0.31805   0.95038   0.58446   1.000
    C142    C    0.36173   0.91203   0.53212   1.000
    C143    C    0.30177   0.85632   0.49568   1.000
    N144    N    0.66158   0.40326   0.56804   1.000
    N145    N    0.34049   0.38972   0.55750   1.000
    N146    N    0.33823   0.90403   0.93109   1.000
    N147    N    0.65973   0.88977   0.94131   1.000
    N148    N    0.33845   0.59675   0.43192   1.000
    N149    N    0.65954   0.61032   0.44246   1.000
    N150    N    0.66178   0.09597   0.06887   1.000
    N151    N    0.34031   0.11023   0.05865   1.000
    N152    N    0.83819   0.59581   0.06900   1.000
    N153    N    0.15978   0.61028   0.05861   1.000
    N154    N    0.16197   0.09678   0.43196   1.000
    N155    N    0.84088   0.11042   0.44253   1.000
    N156    N    0.16184   0.40421   0.93097   1.000
    N157    N    0.84025   0.38973   0.94137   1.000
    N158    N    0.83806   0.90324   0.56802   1.000
    N159    N    0.15914   0.88960   0.55746   1.000
loop_
    _geom_bond_atom_site_label_1
    _geom_bond_atom_site_label_2
    _geom_bond_distance
    _geom_bond_site_symmetry_2
    _ccdc_geom_bond_type
    C87    H14       1.09042      .   S
    C87    C86       1.40381  1_554   S
    C87    C88       1.38531  1_554   S
    C133   H54       1.09058      .   S
    C133   C132      1.40346  1_554   S
    C133   C134      1.38564  1_554   S
    C58    N153      1.34938      .   S
    C58    H39       1.08799  1_554   S
    C58    C57       1.38565  1_554   S
    C108   N151      1.34942      .   S
    C108   H31       1.08818  1_554   S
    C108   C107      1.38529  1_554   S
    H51    C129      1.08785  1_554   S
    H11    C83       1.08758  1_554   S
    C102   C103      1.38899      .   S
    C102   C101      1.40211      .   S
    C102   H26       1.09082  1_554   S
    C112   C113      1.38895      .   S
    C112   C111      1.40200      .   S
    C112   H34       1.09068  1_554   S
    H15    C88       1.08810  1_554   S
    H59    C134      1.08799  1_554   S
    C103   N150      1.34694      .   S
    C103   H27       1.08768  1_554   S
    C113   N152      1.34680      .   S
    C113   H35       1.08786  1_554   S
    H50    C128      1.09019  1_554   S
    H10    C82       1.09078  1_554   S
    C56    C55       1.40095      .   S
    C56    C57       1.40300  1_554   S
    C106   C105      1.40053      .   S
    C106   C107      1.40364  1_554   S
    C101   C100      1.40348      .   S
    C111   C110      1.40354      .   S
    N153   C114      1.34680      .   S
    N151   C104      1.34687      .   S
    N150   C99       1.34877      .   S
    N152   C109      1.34892      .   S
    C105   C104      1.39410      .   S
    C105   H29       1.08862      .   S
    C55    C114      1.39412      .   S
    C55    H37       1.08970      .   S
    C114   H36       1.09009      .   S
    C104   H28       1.08910      .   S
    C100   C99       1.39104      .   S
    C100   H25       1.09084  1_545   S
    C110   C109      1.39111      .   S
    C110   H33       1.09090      .   S
    C99    H24       1.08965      .   S
    C109   H32       1.08957      .   S
    H16    C89       1.08948      .   S
    H40    C115      1.08963      .   S
    H17    C90       1.09102      .   S
    H41    C116      1.09086  1_565   S
    H20    C94       1.08993      .   S
    H44    C120      1.08996      .   S
    H21    C95       1.08961      .   S
    H45    C121      1.08950      .   S
    C89    C90       1.39075      .   S
    C89    N148      1.34896      .   S
    C115   C116      1.39080      .   S
    C115   N154      1.34902      .   S
    C90    C91       1.40331      .   S
    C116   C117      1.40358      .   S
    C94    C95       1.39368      .   S
    C94    N149      1.34691      .   S
    C120   C121      1.39354      .   S
    C120   N155      1.34690      .   S
    C95    C96       1.40030      .   S
    C121   C122      1.40021      .   S
    N148   C93       1.34687      .   S
    N154   C119      1.34670      .   S
    C91    C92       1.40168      .   S
    C117   C118      1.40218      .   S
    N149   C98       1.34926      .   S
    N155   C124      1.34928      .   S
    H66    C143      1.09042      .   S
    H6     C77       1.09040      .   S
    C96    C97       1.40358      .   S
    C122   C123      1.40367      .   S
    H62    C138      1.09047      .   S
    H2     C71       1.09080      .   S
    C93    C92       1.38868      .   S
    C93    H19       1.08770      .   S
    C119   C118      1.38892      .   S
    C119   H43       1.08781      .   S
    H67    C75       1.08796      .   S
    H7     C78       1.08801      .   S
    C92    H18       1.09151      .   S
    C118   H42       1.09075      .   S
    H63    C139      1.08761      .   S
    H3     C72       1.08764      .   S
    C98    C97       1.38518      .   S
    C98    H23       1.08805      .   S
    C124   C123      1.38513      .   S
    C124   H47       1.08790      .   S
    C143   C75       1.38513      .   S
    C143   C142      1.40367      .   S
    C77    C78       1.38517      .   S
    C77    C76       1.40369      .   S
    C97    H22       1.09047      .   S
    C123   H46       1.09037      .   S
    C75    N159      1.34930      .   S
    C78    N145      1.34908      .   S
    C138   C139      1.38896      .   S
    C138   C137      1.40265      .   S
    C71    C72       1.38876      .   S
    C71    C70       1.40197      .   S
    C139   N158      1.34694      .   S
    C72    N144      1.34694      .   S
    C142   C141      1.40008      .   S
    C76    C74       1.40026      .   S
    N159   C140      1.34678      .   S
    N145   C73       1.34711      .   S
    C137   C136      1.40337      .   S
    C70    C69       1.40387      .   S
    N158   C135      1.34912      .   S
    N144   C68       1.34893      .   S
    C141   C140      1.39357      .   S
    C141   H65       1.08966      .   S
    C74    C73       1.39368      .   S
    C74    H5        1.08958      .   S
    C140   H64       1.09002      .   S
    C73    H4        1.09004      .   S
    C136   C135      1.39080      .   S
    C136   H61       1.09066  1_565   S
    C69    C68       1.39076      .   S
    C69    H1        1.09090      .   S
    C135   H60       1.08956      .   S
    C68    H0        1.08954      .   S
    H8     C79       1.08959      .   S
    H48    C125      1.08960      .   S
    H9     C80       1.09088  1_545   S
    H49    C126      1.09091      .   S
    H52    C130      1.08991      .   S
    H12    C84       1.09009      .   S
    H53    C131      1.08969      .   S
    H13    C85       1.08971      .   S
    C125   C126      1.39110      .   S
    C125   N156      1.34877      .   S
    C79    C80       1.39113      .   S
    C79    N146      1.34955      .   S
    C126   C127      1.40339      .   S
    C80    C81       1.40357      .   S
    C130   C131      1.39414      .   S
    C130   N157      1.34691      .   S
    C84    C85       1.39413      .   S
    C84    N147      1.34679      .   S
    C131   C132      1.40042      .   S
    C85    C86       1.40034      .   S
    N156   C129      1.34698      .   S
    N146   C83       1.34705      .   S
    N147   C88       1.34956      .   S
    N157   C134      1.34938      .   S
    C127   C128      1.40212      .   S
    C81    C82       1.40201      .   S
    H30    C107      1.09060      .   S
    H38    C57       1.09058      .   S
    C129   C128      1.38896      .   S
    C83    C82       1.38896      .   S
