# CIF file generated by openbabel 2.4.90, see http://openbabel.sf.net
data_I
_chemical_name_common ''
_cell_length_a 13.544
_cell_length_b 14.801
_cell_length_c 21.599
_cell_angle_alpha 89.493
_cell_angle_beta 89.904
_cell_angle_gamma 90.087
_space_group_name_H-M_alt 'P 1'
_space_group_name_Hall 'P 1'
loop_
    _symmetry_equiv_pos_as_xyz
    x,y,z
loop_
    _atom_site_label
    _atom_site_type_symbol
    _atom_site_fract_x
    _atom_site_fract_y
    _atom_site_fract_z
    _atom_site_occupancy
    Lv0     Lv   0.00001   0.00001   0.99997   1.000
    Lv1     Lv   0.50002   0.00004   0.50001   1.000
    Lv2     Lv   0.00001   0.50001   0.49999   1.000
    Lv3     Lv   0.49640   0.81539   0.21657   1.000
    Lv4     Lv   0.00451   0.18643   0.71638   1.000
    Lv5     Lv   0.50002   0.50001   0.99998   1.000
    Lv6     Lv   0.50442   0.31355   0.28359   1.000
    Lv7     Lv   0.50363   0.18475   0.78340   1.000
    Lv8     Lv   0.49559   0.68648   0.71636   1.000
    Lv9     Lv   0.99468   0.68449   0.78335   1.000
    Lv10    Lv   0.99422   0.81357   0.28359   1.000
    Lv11    Lv   0.00344   0.31551   0.21662   1.000
