# CIF file generated by openbabel 2.4.90, see http://openbabel.sf.net
data_I
_chemical_name_common ''
_cell_length_a 13.544
_cell_length_b 14.801
_cell_length_c 21.599
_cell_angle_alpha 89.493
_cell_angle_beta 89.904
_cell_angle_gamma 90.087
_space_group_name_H-M_alt 'P 1'
_space_group_name_Hall 'P 1'
loop_
    _symmetry_equiv_pos_as_xyz
    x,y,z
loop_
    _atom_site_label
    _atom_site_type_symbol
    _atom_site_fract_x
    _atom_site_fract_y
    _atom_site_fract_z
    _atom_site_occupancy
    Mc0     Mc   0.24094   0.10069   0.04667   1.000
    Mc1     Mc   0.76069   0.07538   0.06446   1.000
    Mc2     Mc   0.75910   0.89932   0.95329   1.000
    Mc3     Mc   0.23933   0.92464   0.93549   1.000
    Mc4     Mc   0.26105   0.07674   0.43592   1.000
    Mc5     Mc   0.74129   0.10138   0.45394   1.000
    Mc6     Mc   0.25873   0.89866   0.54606   1.000
    Mc7     Mc   0.73898   0.92330   0.56406   1.000
    Mc8     Mc   0.23931   0.57673   0.43582   1.000
    Mc9     Mc   0.75906   0.60118   0.45387   1.000
    Mc10    Mc   0.76072   0.42328   0.56414   1.000
    Mc11    Mc   0.24097   0.39885   0.54610   1.000
    Mc12    Mc   0.25919   0.60072   0.04667   1.000
    Mc13    Mc   0.73925   0.57522   0.06456   1.000
    Mc14    Mc   0.74084   0.39929   0.95330   1.000
    Mc15    Mc   0.26078   0.42480   0.93541   1.000
