# CIF file generated by openbabel 2.4.90, see http://openbabel.sf.net
data_I
_chemical_name_common ''
_cell_length_a 13.544
_cell_length_b 14.801
_cell_length_c 21.599
_cell_angle_alpha 89.493
_cell_angle_beta 89.904
_cell_angle_gamma 90.087
_space_group_name_H-M_alt 'P 1'
_space_group_name_Hall 'P 1'
loop_
    _symmetry_equiv_pos_as_xyz
    x,y,z
loop_
    _atom_site_label
    _atom_site_type_symbol
    _atom_site_fract_x
    _atom_site_fract_y
    _atom_site_fract_z
    _atom_site_occupancy
    H0      H    0.99253   0.51837   0.58837   1.000
    H1      H    0.00648   0.37287   0.48756   1.000
    H2      H    0.48968   0.11832   0.68674   1.000
    H3      H    0.50893   0.28869   0.76658   1.000
    H4      H    0.49977   0.08169   0.79921   1.000
    H5      H    0.51611   0.25000   0.88164   1.000
    H6      H    0.00769   0.02005   0.91150   1.000
    H7      H    0.99316   0.87238   0.01259   1.000
    H8      H    0.50783   0.62302   0.81480   1.000
    H9      H    0.49090   0.79092   0.73035   1.000
    H10     H    0.49956   0.58297   0.70329   1.000
    H11     H    0.48401   0.74868   0.61641   1.000
    H12     H    0.00749   0.48165   0.41160   1.000
    H13     H    0.99355   0.62714   0.51242   1.000
    H14     H    0.51039   0.88198   0.31319   1.000
    H15     H    0.49109   0.71148   0.23350   1.000
    H16     H    0.50025   0.91841   0.20066   1.000
    H17     H    0.48390   0.74999   0.11834   1.000
    H18     H    0.99233   0.97997   0.08840   1.000
    H19     H    0.00688   0.12765   0.98739   1.000
    H20     H    0.49220   0.37698   0.18515   1.000
    H21     H    0.50909   0.20911   0.26962   1.000
    H22     H    0.50046   0.41706   0.29664   1.000
    H23     H    0.51598   0.25138   0.38354   1.000
    H24     H    0.50711   0.47982   0.08838   1.000
    H25     H    0.49371   0.62766   0.98740   1.000
    H26     H    0.00000   0.87703   0.18513   1.000
    H27     H    0.99086   0.70911   0.26964   1.000
    H28     H    0.99947   0.91710   0.29663   1.000
    H29     H    0.98396   0.75138   0.38358   1.000
    H30     H    0.49285   0.98210   0.41161   1.000
    H31     H    0.50664   0.12716   0.51271   1.000
    H32     H    0.98973   0.38215   0.31328   1.000
    H33     H    0.00882   0.21165   0.23359   1.000
    H34     H    0.99963   0.41853   0.20066   1.000
    H35     H    0.01554   0.25003   0.11838   1.000
    H36     H    0.49292   0.52019   0.91159   1.000
    H37     H    0.50632   0.37235   0.01250   1.000
    H38     H    0.99239   0.12297   0.81485   1.000
    H39     H    0.00914   0.29089   0.73034   1.000
    H40     H    0.00055   0.08291   0.70335   1.000
    H41     H    0.01602   0.24863   0.61640   1.000
    H42     H    0.50719   0.01796   0.58842   1.000
    H43     H    0.49339   0.87293   0.48730   1.000
    H44     H    0.00000   0.61785   0.68669   1.000
    H45     H    0.99119   0.78834   0.76638   1.000
    H46     H    0.00000   0.58147   0.79932   1.000
    H47     H    0.98445   0.74997   0.88160   1.000
    C48     C    0.96265   0.48902   0.54585   1.000
    C49     C    0.46212   0.93434   0.50740   1.000
    C50     C    0.00000   0.68962   0.69763   1.000
    C51     C    0.99678   0.71595   0.75723   1.000
    C52     C    0.03781   0.43441   0.50749   1.000
    C53     C    0.49549   0.19009   0.69773   1.000
    C54     C    0.50334   0.21630   0.75733   1.000
    C55     C    0.50459   0.15405   0.80899   1.000
    C56     C    0.51110   0.17888   0.86896   1.000
    C57     C    0.03759   0.99007   0.95422   1.000
    C58     C    0.96213   0.93447   0.99260   1.000
    C59     C    0.50274   0.69445   0.80190   1.000
    C60     C    0.49590   0.71884   0.74158   1.000
    C61     C    0.49492   0.65499   0.69159   1.000
    C62     C    0.48885   0.67797   0.63096   1.000
    C63     C    0.03738   0.51100   0.45412   1.000
    C64     C    0.96222   0.56561   0.49248   1.000
    C65     C    0.50457   0.81019   0.30226   1.000
    C66     C    0.49669   0.78388   0.24268   1.000
    C67     C    0.49542   0.84603   0.19096   1.000
    C68     C    0.48892   0.82112   0.13100   1.000
    C69     C    0.96244   0.00996   0.04576   1.000
    C70     C    0.03790   0.06555   0.00730   1.000
    C71     C    0.49729   0.30556   0.19805   1.000
    C72     C    0.50411   0.28118   0.25838   1.000
    C73     C    0.50509   0.34505   0.30836   1.000
    C74     C    0.51116   0.32208   0.36899   1.000
    C75     C    0.53736   0.50987   0.04577   1.000
    C76     C    0.46231   0.56555   0.00743   1.000
    C77     C    0.00000   0.80559   0.19800   1.000
    C78     C    0.99582   0.78120   0.25839   1.000
    C79     C    0.99485   0.84507   0.30837   1.000
    C80     C    0.98881   0.82209   0.36901   1.000
    C81     C    0.46278   0.01118   0.45420   1.000
    C82     C    0.53790   0.06574   0.49260   1.000
    C83     C    0.99556   0.31037   0.30234   1.000
    C84     C    0.00324   0.28405   0.24270   1.000
    C85     C    0.00435   0.34614   0.19099   1.000
    C86     C    0.01066   0.32116   0.13103   1.000
    C87     C    0.46267   0.49015   0.95420   1.000
    C88     C    0.53772   0.43446   0.99254   1.000
    C89     C    0.99742   0.19442   0.80190   1.000
    C90     C    0.00419   0.21881   0.74159   1.000
    C91     C    0.00517   0.15493   0.69161   1.000
    C92     C    0.01120   0.17791   0.63097   1.000
    C93     C    0.53725   0.98889   0.54582   1.000
    C94     C    0.99567   0.65386   0.80899   1.000
    C95     C    0.98936   0.67884   0.86895   1.000
loop_
    _geom_bond_atom_site_label_1
    _geom_bond_atom_site_label_2
    _geom_bond_distance
    _geom_bond_site_symmetry_2
    _ccdc_geom_bond_type
    C70    C69       1.54734  1_455   S
    C70    C57       1.60790  1_544   S
    C70    H19       1.09590  1_554   S
    C76    C75       1.54637      .   S
    C76    C87       1.60938  1_554   S
    C76    H25       1.09737  1_554   S
    H37    C88       1.09678  1_554   S
    H7     C58       1.09656  1_554   S
    C69    H18       1.09711  1_545   S
    C69    C58       1.60916  1_544   S
    C75    H24       1.09706      .   S
    C75    C88       1.60938  1_554   S
    H17    C68       1.09211      .   S
    H35    C86       1.09214      .   S
    C68    C67       1.35266      .   S
    C86    C85       1.35255      .   S
    H26    C77       1.09097      .   S
    H20    C71       1.09321      .   S
    C67    H16       1.09530      .   S
    C67    C66       1.44094      .   S
    C85    H34       1.09531  1_455   S
    C85    C84       1.44014      .   S
    C77    C78       1.35139  1_455   S
    C71    C72       1.35234      .   S
    H15    C66       1.09410      .   S
    H33    C84       1.09387      .   S
    C66    C65       1.35213      .   S
    C84    C83       1.35298  1_455   S
    C72    H21       1.09412      .   S
    C72    C73       1.44127      .   S
    C78    H27       1.09409      .   S
    C78    C79       1.44129      .   S
    H28    C79       1.09526      .   S
    H22    C73       1.09525      .   S
    C65    H14       1.09326      .   S
    C83    H32       1.09328      .   S
    C73    C74       1.35270      .   S
    C79    C80       1.35259      .   S
    C74    H23       1.09209      .   S
    C80    H29       1.09212      .   S
    H12    C63       1.09722      .   S
    H30    C81       1.09707  1_565   S
    C63    C64       1.54517  1_455   S
    C63    C52       1.60957      .   S
    C81    C82       1.54506      .   S
    C81    C49       1.60955  1_545   S
    H43    C49       1.09619      .   S
    H1     C52       1.09610      .   S
    C64    H13       1.09616      .   S
    C64    C48       1.60959      .   S
    C82    H31       1.09634      .   S
    C82    C93       1.60991  1_545   S
    C49    C93       1.54529      .   S
    C52    C48       1.54518  1_455   S
    C93    H42       1.09712  1_565   S
    C48    H0        1.09717      .   S
    H41    C92       1.09210      .   S
    H11    C62       1.09210      .   S
    C62    C61       1.35275      .   S
    C92    C91       1.35259      .   S
    H44    C50       1.09033      .   S
    H2     C53       1.09319      .   S
    C61    H10       1.09520      .   S
    C61    C60       1.44127      .   S
    C91    H40       1.09527      .   S
    C91    C90       1.44129      .   S
    C50    C51       1.34892  1_455   S
    C53    C54       1.35209      .   S
    H39    C90       1.09410      .   S
    H9     C60       1.09412      .   S
    C60    C59       1.35221      .   S
    C90    C89       1.35157  1_455   S
    C51    H45       1.09405      .   S
    C51    C94       1.44094      .   S
    C54    H3        1.09407      .   S
    C54    C55       1.44094      .   S
    H4     C55       1.09532      .   S
    H46    C94       1.09502  1_455   S
    C89    H38       1.09341      .   S
    C59    H8        1.09327      .   S
    C94    C95       1.35257      .   S
    C55    C56       1.35255      .   S
    C95    H47       1.09217      .   S
    C56    H5        1.09209      .   S
    H6     C57       1.09858  1_545   S
    H36    C87       1.09706      .   S
    C87    C88       1.54638      .   S
    C57    C58       1.54640  1_455   S
