# CIF file generated by openbabel 2.4.90, see http://openbabel.sf.net
data_I
_chemical_name_common ''
_cell_length_a 13.544
_cell_length_b 14.801
_cell_length_c 21.599
_cell_angle_alpha 89.493
_cell_angle_beta 89.904
_cell_angle_gamma 90.087
_space_group_name_H-M_alt 'P 1'
_space_group_name_Hall 'P 1'
loop_
    _symmetry_equiv_pos_as_xyz
    x,y,z
loop_
    _atom_site_label
    _atom_site_type_symbol
    _atom_site_fract_x
    _atom_site_fract_y
    _atom_site_fract_z
    _atom_site_occupancy
    Zr0     Zr   0.50017   0.39451   0.56548   1.000
    Zr1     Zr   0.49973   0.89397   0.93348   1.000
    Zr2     Zr   0.49987   0.60553   0.43447   1.000
    Zr3     Zr   0.50031   0.10603   0.06648   1.000
    Zr4     Zr   0.99973   0.60604   0.06649   1.000
    Zr5     Zr   0.00035   0.10554   0.43446   1.000
    Zr6     Zr   0.00031   0.39396   0.93349   1.000
    Zr7     Zr   0.99968   0.89446   0.56550   1.000
    Zr8     Zr   0.49519   0.25284   0.64350   1.000
    Zr9     Zr   0.51032   0.11288   0.92137   1.000
    Zr10    Zr   0.50266   0.75876   0.85442   1.000
    Zr11    Zr   0.48971   0.61061   0.58018   1.000
    Zr12    Zr   0.50488   0.74746   0.35647   1.000
    Zr13    Zr   0.48969   0.88711   0.07857   1.000
    Zr14    Zr   0.49737   0.24124   0.14554   1.000
    Zr15    Zr   0.51031   0.38944   0.41978   1.000
    Zr16    Zr   0.00000   0.74126   0.14554   1.000
    Zr17    Zr   0.98970   0.88945   0.41979   1.000
    Zr18    Zr   0.99538   0.24762   0.35655   1.000
    Zr19    Zr   0.00989   0.38711   0.07857   1.000
    Zr20    Zr   0.99744   0.25874   0.85444   1.000
    Zr21    Zr   0.01032   0.11055   0.58019   1.000
    Zr22    Zr   0.00000   0.75238   0.64342   1.000
    Zr23    Zr   0.99014   0.61289   0.92140   1.000
    Zr24    Zr   0.49919   0.33846   0.65354   1.000
    Zr25    Zr   0.49181   0.21910   0.58986   1.000
    Zr26    Zr   0.51192   0.14837   0.97521   1.000
    Zr27    Zr   0.50806   0.02933   0.90870   1.000
    Zr28    Zr   0.50058   0.84414   0.84281   1.000
    Zr29    Zr   0.50404   0.72646   0.90910   1.000
    Zr30    Zr   0.48800   0.64472   0.52555   1.000
    Zr31    Zr   0.49212   0.52734   0.59480   1.000
    Zr32    Zr   0.50086   0.66184   0.34647   1.000
    Zr33    Zr   0.50831   0.78115   0.41016   1.000
    Zr34    Zr   0.48811   0.85161   0.02474   1.000
    Zr35    Zr   0.49198   0.97065   0.09116   1.000
    Zr36    Zr   0.49945   0.15586   0.15716   1.000
    Zr37    Zr   0.49600   0.27353   0.09086   1.000
    Zr38    Zr   0.51201   0.35531   0.47440   1.000
    Zr39    Zr   0.50792   0.47271   0.40516   1.000
    Zr40    Zr   0.00047   0.65588   0.15717   1.000
    Zr41    Zr   0.00000   0.77354   0.09085   1.000
    Zr42    Zr   0.98799   0.85533   0.47442   1.000
    Zr43    Zr   0.99212   0.97274   0.40516   1.000
    Zr44    Zr   0.99967   0.16203   0.34651   1.000
    Zr45    Zr   0.99177   0.28124   0.41026   1.000
    Zr46    Zr   0.01142   0.35159   0.02470   1.000
    Zr47    Zr   0.00777   0.47066   0.09110   1.000
    Zr48    Zr   0.99956   0.34412   0.84281   1.000
    Zr49    Zr   0.99600   0.22646   0.90913   1.000
    Zr50    Zr   0.01204   0.14467   0.52556   1.000
    Zr51    Zr   0.00792   0.02727   0.59482   1.000
    Zr52    Zr   0.00036   0.83797   0.65347   1.000
    Zr53    Zr   0.00000   0.71876   0.58972   1.000
    Zr54    Zr   0.98861   0.64842   0.97523   1.000
    Zr55    Zr   0.99226   0.52935   0.90880   1.000
    O56     O    0.01065   0.36935   0.05163   1.000
    O57     O    0.00586   0.37278   0.97909   1.000
    O58     O    0.48890   0.86936   0.05165   1.000
    O59     O    0.49392   0.87279   0.97911   1.000
    O60     O    0.49615   0.03834   0.07882   1.000
    O61     O    0.49988   0.13095   0.11182   1.000
    O62     O    0.50611   0.12720   0.02084   1.000
    O63     O    0.00375   0.53835   0.07879   1.000
    O64     O    0.00010   0.63096   0.11183   1.000
    O65     O    0.99417   0.62723   0.02086   1.000
    O66     O    0.00883   0.42889   0.08483   1.000
    O67     O    0.49084   0.92888   0.08486   1.000
    O68     O    0.00000   0.75740   0.11819   1.000
    O69     O    0.49668   0.25738   0.11820   1.000
    O70     O    0.00024   0.69857   0.15135   1.000
    O71     O    0.49841   0.19855   0.15135   1.000
    O72     O    0.50287   0.70465   0.35147   1.000
    O73     O    0.50036   0.63369   0.39047   1.000
    O74     O    0.99753   0.20482   0.35153   1.000
    O75     O    0.00001   0.13378   0.39048   1.000
    O76     O    0.50660   0.76430   0.38331   1.000
    O77     O    0.99358   0.26443   0.38340   1.000
    O78     O    0.50911   0.43107   0.41247   1.000
    O79     O    0.50389   0.53912   0.41981   1.000
    O80     O    0.99091   0.93110   0.41247   1.000
    O81     O    0.99623   0.03914   0.41981   1.000
    O82     O    0.51116   0.37237   0.44709   1.000
    O83     O    0.98885   0.87239   0.44710   1.000
    O84     O    0.00619   0.12511   0.48001   1.000
    O85     O    0.49394   0.62513   0.48001   1.000
    O86     O    0.50609   0.37491   0.51994   1.000
    O87     O    0.99384   0.87490   0.51996   1.000
    O88     O    0.48886   0.62767   0.55286   1.000
    O89     O    0.01118   0.12761   0.55287   1.000
    O90     O    0.49614   0.46093   0.58014   1.000
    O91     O    0.49968   0.36649   0.60951   1.000
    O92     O    0.00380   0.96087   0.58016   1.000
    O93     O    0.00002   0.86622   0.60948   1.000
    O94     O    0.49092   0.56898   0.58749   1.000
    O95     O    0.00912   0.06891   0.58750   1.000
    O96     O    0.00000   0.73557   0.61657   1.000
    O97     O    0.49350   0.23597   0.61668   1.000
    O98     O    0.00018   0.79517   0.64844   1.000
    O99     O    0.49719   0.29565   0.64852   1.000
    O100    O    0.50162   0.80145   0.84861   1.000
    O101    O    0.50015   0.86906   0.88814   1.000
    O102    O    0.99850   0.30143   0.84862   1.000
    O103    O    0.99993   0.36904   0.88815   1.000
    O104    O    0.50335   0.74261   0.88176   1.000
    O105    O    0.99672   0.24260   0.88178   1.000
    O106    O    0.50919   0.07110   0.91503   1.000
    O107    O    0.50389   0.96165   0.92109   1.000
    O108    O    0.99120   0.57112   0.91510   1.000
    O109    O    0.99629   0.46165   0.92114   1.000
    O110    O    0.51112   0.13062   0.94829   1.000
    O111    O    0.98937   0.63066   0.94831   1.000
    N112    N    0.00001   0.00001   0.99997   1.000
    O113    O    0.33062   0.10441   0.05462   1.000
    O114    O    0.67087   0.08819   0.06607   1.000
    O115    O    0.66941   0.89560   0.94534   1.000
    O116    O    0.32916   0.91182   0.93389   1.000
    N117    N    0.50002   0.00004   0.50001   1.000
    O118    O    0.17111   0.08895   0.43456   1.000
    O119    O    0.83095   0.10468   0.44622   1.000
    O120    O    0.16907   0.89535   0.55377   1.000
    O121    O    0.82892   0.91108   0.56541   1.000
    N122    N    0.00001   0.50001   0.49999   1.000
    O123    O    0.32924   0.58894   0.43451   1.000
    O124    O    0.66938   0.60456   0.44617   1.000
    O125    O    0.67080   0.41109   0.56545   1.000
    O126    O    0.33065   0.39549   0.55380   1.000
    N127    N    0.49640   0.81539   0.21657   1.000
    O128    O    0.49285   0.83475   0.16068   1.000
    O129    O    0.50056   0.79711   0.27297   1.000
    N130    N    0.00451   0.18643   0.71638   1.000
    O131    O    0.00097   0.20651   0.77227   1.000
    O132    O    0.00764   0.16533   0.66098   1.000
    N133    N    0.50002   0.50001   0.99998   1.000
    O134    O    0.16947   0.60444   0.05461   1.000
    O135    O    0.82911   0.58807   0.06615   1.000
    O136    O    0.83056   0.39557   0.94537   1.000
    O137    O    0.17093   0.41194   0.93382   1.000
    N138    N    0.50442   0.31355   0.28359   1.000
    O139    O    0.50758   0.33466   0.33899   1.000
    O140    O    0.50088   0.29347   0.22769   1.000
    N141    N    0.50363   0.18475   0.78340   1.000
    O142    O    0.50717   0.16532   0.83928   1.000
    O143    O    0.49948   0.20311   0.72701   1.000
    N144    N    0.49559   0.68648   0.71636   1.000
    O145    O    0.49914   0.70654   0.77226   1.000
    O146    O    0.49244   0.66539   0.66096   1.000
    N147    N    0.99468   0.68449   0.78335   1.000
    O148    O    0.99222   0.66518   0.83926   1.000
    O149    O    0.99734   0.70274   0.72694   1.000
    N150    N    0.99422   0.81357   0.28359   1.000
    O151    O    0.99174   0.83467   0.33900   1.000
    O152    O    0.99711   0.79350   0.22768   1.000
    N153    N    0.00344   0.31551   0.21662   1.000
    O154    O    0.00686   0.33482   0.16071   1.000
    O155    O    0.99946   0.29725   0.27303   1.000
loop_
    _geom_bond_atom_site_label_1
    _geom_bond_atom_site_label_2
    _geom_bond_distance
    _geom_bond_site_symmetry_2
    _ccdc_geom_bond_type
    Zr46   O56       0.64060      .   S
    Zr19   O56       0.64060      .   S
    Zr46   O57       1.03399  1_554   S
    Zr6    O57       1.03399      .   S
    Zr34   O58       0.64015      .   S
    Zr13   O58       0.64015      .   S
    Zr34   O59       1.03441  1_554   S
    Zr1    O59       1.03441      .   S
    Zr3    O60       1.03587      .   S
    Zr35   O60       1.03587  1_565   S
    Zr3    O61       1.04948      .   S
    Zr36   O61       1.04948      .   S
    Zr3    O62       1.03444      .   S
    Zr26   O62       1.03444  1_556   S
    Zr4    O63       1.03582  1_655   S
    Zr47   O63       1.03582      .   S
    Zr4    O64       1.04952  1_655   S
    Zr40   O64       1.04952      .   S
    Zr4    O65       1.03451      .   S
    Zr54   O65       1.03451  1_556   S
    Zr19   O66       0.63428      .   S
    Zr47   O66       0.63428      .   S
    Zr13   O67       0.63440      .   S
    Zr35   O67       0.63440      .   S
    Zr41   O68       0.63514      .   S
    Zr16   O68       0.63514      .   S
    Zr37   O69       0.63516      .   S
    Zr14   O69       0.63516      .   S
    Zr16   O70       0.64314      .   S
    Zr40   O70       0.64314      .   S
    Zr14   O71       0.64326      .   S
    Zr36   O71       0.64326      .   S
    Zr32   O72       0.64424      .   S
    Zr12   O72       0.64424      .   S
    Zr32   O73       1.03432      .   S
    Zr2    O73       1.03432      .   S
    Zr44   O74       0.64426      .   S
    Zr18   O74       0.64426      .   S
    Zr44   O75       1.03438  1_655   S
    Zr5    O75       1.03438      .   S
    Zr12   O76       0.63362      .   S
    Zr33   O76       0.63362      .   S
    Zr18   O77       0.63363      .   S
    Zr45   O77       0.63363      .   S
    Zr39   O78       0.63505      .   S
    Zr15   O78       0.63505      .   S
    Zr39   O79       1.03683      .   S
    Zr2    O79       1.03683      .   S
    Zr43   O80       0.63507      .   S
    Zr17   O80       0.63507      .   S
    Zr43   O81       1.03660  1_565   S
    Zr5    O81       1.03660  1_455   S
    Zr15   O82       0.63973      .   S
    Zr38   O82       0.63973      .   S
    Zr17   O83       0.63978      .   S
    Zr42   O83       0.63978      .   S
    Zr5    O84       1.03117      .   S
    Zr50   O84       1.03117      .   S
    Zr2    O85       1.03098      .   S
    Zr30   O85       1.03098      .   S
    Zr38   O86       1.03100      .   S
    Zr0    O86       1.03100      .   S
    Zr42   O87       1.03096      .   S
    Zr7    O87       1.03096      .   S
    Zr30   O88       0.63979      .   S
    Zr11   O88       0.63979      .   S
    Zr50   O89       0.63977      .   S
    Zr21   O89       0.63977      .   S
    Zr0    O90       1.03690      .   S
    Zr31   O90       1.03690      .   S
    Zr0    O91       1.03417      .   S
    Zr24   O91       1.03417      .   S
    Zr7    O92       1.03669  1_655   S
    Zr51   O92       1.03669  1_545   S
    Zr7    O93       1.03459  1_655   S
    Zr52   O93       1.03459      .   S
    Zr11   O94       0.63501      .   S
    Zr31   O94       0.63501      .   S
    Zr21   O95       0.63507      .   S
    Zr51   O95       0.63507      .   S
    Zr53   O96       0.63307      .   S
    Zr22   O96       0.63307      .   S
    Zr25   O97       0.63325      .   S
    Zr8    O97       0.63325      .   S
    Zr22   O98       0.64360      .   S
    Zr52   O98       0.64360      .   S
    Zr8    O99       0.64434      .   S
    Zr24   O99       0.64434      .   S
    Zr28   O100      0.64327      .   S
    Zr10   O100      0.64327      .   S
    Zr28   O101      1.04939      .   S
    Zr1    O101      1.04939      .   S
    Zr48   O102      0.64325      .   S
    Zr20   O102      0.64325      .   S
    Zr48   O103      1.04953      .   S
    Zr6    O103      1.04953  1_455   S
    Zr10   O104      0.63518      .   S
    Zr29   O104      0.63518      .   S
    Zr20   O105      0.63520      .   S
    Zr49   O105      0.63520      .   S
    Zr27   O106      0.63457      .   S
    Zr9    O106      0.63457      .   S
    Zr27   O107      1.03602  1_545   S
    Zr1    O107      1.03602      .   S
    Zr55   O108      0.63445      .   S
    Zr23   O108      0.63445      .   S
    Zr55   O109      1.03602      .   S
    Zr6    O109      1.03602  1_455   S
    Zr9    O110      0.64023      .   S
    Zr26   O110      0.64023      .   S
    Zr23   O111      0.64021      .   S
    Zr54   O111      0.64021      .   S
    N112   O113      4.88469  1_556   S
    Zr3    O113      2.31300      .   S
    N112   O114      4.86254  1_456   S
    Zr3    O114      2.32550      .   S
    N112   O115      4.88454  1_445   S
    Zr1    O115      2.31304      .   S
    N112   O116      4.86241  1_545   S
    Zr1    O116      2.32567      .   S
    N117   O118      4.85601      .   S
    Zr5    O118      2.32609      .   S
    N117   O119      4.87529      .   S
    Zr5    O119      2.30788  1_455   S
    N117   O120      4.87546  1_545   S
    Zr7    O120      2.30775  1_655   S
    N117   O121      4.85591  1_545   S
    Zr7    O121      2.32617      .   S
    N122   O123      4.85213      .   S
    Zr2    O123      2.32371      .   S
    N122   O124      4.87907  1_455   S
    Zr2    O124      2.31024      .   S
    N122   O125      4.85196  1_455   S
    Zr0    O125      2.32358      .   S
    N122   O126      4.87897      .   S
    Zr0    O126      2.31030      .   S
    N127   O128      1.23937      .   S
    Zr13   O128      1.92967      .   S
    N127   O129      1.24682      .   S
    Zr12   O129      1.94246      .   S
    N130   O131      1.24675      .   S
    Zr20   O131      1.94263  1_655   S
    N130   O132      1.23997      .   S
    Zr21   O132      1.93093      .   S
    N133   O134      4.88462  1_556   S
    Zr4    O134      2.31303  1_655   S
    N133   O135      4.86263  1_556   S
    Zr4    O135      2.32586      .   S
    N133   O136      4.88455      .   S
    Zr6    O136      2.31307  1_455   S
    N133   O137      4.86247      .   S
    Zr6    O137      2.32580      .   S
    N138   O139      1.24008      .   S
    Zr15   O139      1.93107      .   S
    N138   O140      1.24691      .   S
    Zr14   O140      1.94244      .   S
    N141   O142      1.23939      .   S
    Zr9    O142      1.92974      .   S
    N141   O143      1.24695      .   S
    Zr8    O143      1.94302      .   S
    N144   O145      1.24690      .   S
    Zr10   O145      1.94245      .   S
    N144   O146      1.24000      .   S
    Zr11   O146      1.93090      .   S
    N147   O148      1.23895      .   S
    Zr23   O148      1.92938      .   S
    N147   O149      1.24616      .   S
    Zr22   O149      1.94196  1_455   S
    N150   O151      1.23982      .   S
    Zr17   O151      1.93089      .   S
    N150   O152      1.24676      .   S
    Zr16   O152      1.94194  1_455   S
    N153   O154      1.23929      .   S
    Zr19   O154      1.92967      .   S
    N153   O155      1.24677  1_455   S
    Zr18   O155      1.94237      .   S
