# CIF file generated by openbabel 2.4.90, see http://openbabel.sf.net
data_I
_chemical_name_common ''
_cell_length_a 13.544
_cell_length_b 14.801
_cell_length_c 21.599
_cell_angle_alpha 89.493
_cell_angle_beta 89.904
_cell_angle_gamma 90.087
_space_group_name_H-M_alt 'P 1'
_space_group_name_Hall 'P 1'
loop_
    _symmetry_equiv_pos_as_xyz
    x,y,z
loop_
    _atom_site_label
    _atom_site_type_symbol
    _atom_site_fract_x
    _atom_site_fract_y
    _atom_site_fract_z
    _atom_site_occupancy
    N0      N    0.00001   0.00001   0.99997   1.000
    N1      N    0.50002   0.00004   0.50001   1.000
    N2      N    0.00001   0.50001   0.49999   1.000
    N3      N    0.49640   0.81539   0.21657   1.000
    N4      N    0.00451   0.18643   0.71638   1.000
    N5      N    0.50002   0.50001   0.99998   1.000
    N6      N    0.50442   0.31355   0.28359   1.000
    N7      N    0.50363   0.18475   0.78340   1.000
    N8      N    0.49559   0.68648   0.71636   1.000
    N9      N    0.99468   0.68449   0.78335   1.000
    N10     N    0.99422   0.81357   0.28359   1.000
    N11     N    0.00344   0.31551   0.21662   1.000
    Zr12    Zr   0.50003   0.50007   0.49999   1.000
    O13     O    0.50029   0.64859   0.38648   1.000
    O14     O    0.49976   0.35159   0.61350   1.000
    O15     O    0.41463   0.54451   0.46725   1.000
    O16     O    0.58470   0.55232   0.47308   1.000
    O17     O    0.49623   0.58273   0.58048   1.000
    O18     O    0.58541   0.45558   0.53272   1.000
    O19     O    0.41534   0.44778   0.52689   1.000
    O20     O    0.50380   0.41737   0.41949   1.000
    Zr21    Zr   0.99909   0.00000   0.49999   1.000
    O22     O    0.99927   0.14863   0.38651   1.000
    O23     O    0.99822   0.85137   0.61346   1.000
    O24     O    0.00336   0.08267   0.58048   1.000
    O25     O    0.08408   0.94767   0.52688   1.000
    O26     O    0.91401   0.95554   0.53270   1.000
    O27     O    0.99542   0.91734   0.41949   1.000
    O28     O    0.08510   0.04448   0.46728   1.000
    O29     O    0.91502   0.05234   0.47310   1.000
    Zr30    Zr   0.99954   0.50000   0.99998   1.000
    O31     O    0.00320   0.41741   0.08035   1.000
    O32     O    0.99588   0.58259   0.91962   1.000
    O33     O    0.00026   0.35326   0.88613   1.000
    O34     O    0.08451   0.55222   0.02729   1.000
    O35     O    0.91432   0.54404   0.03307   1.000
    O36     O    0.99833   0.64675   0.11383   1.000
    O37     O    0.08524   0.45597   0.96690   1.000
    O38     O    0.91505   0.44779   0.97267   1.000
    Zr39    Zr   0.50002   1.00000   0.99997   1.000
    O40     O    0.49958   0.85327   0.88612   1.000
    O41     O    0.50045   0.14673   0.11383   1.000
    O42     O    0.50359   0.08266   0.91963   1.000
    O43     O    0.58471   0.94780   0.97266   1.000
    O44     O    0.41459   0.95591   0.96693   1.000
    O45     O    0.49643   0.91737   0.08033   1.000
    O46     O    0.41532   0.05220   0.02729   1.000
    O47     O    0.58544   0.04409   0.03302   1.000
loop_
    _geom_bond_atom_site_label_1
    _geom_bond_atom_site_label_2
    _geom_bond_distance
    _geom_bond_site_symmetry_2
    _ccdc_geom_bond_type
    Zr12   O13       3.27832      .   S
    N3     O13       4.40516      .   S
    Zr12   O14       3.27800      .   S
    N7     O14       4.40543      .   S
    Zr12   O15       1.50567      .   S
    N2     O15       5.69522      .   S
    Zr12   O16       1.49605      .   S
    N2     O16       5.70907  1_455   S
    Zr12   O17       2.13522      .   S
    N8     O17       3.32444      .   S
    Zr12   O18       1.50589      .   S
    N2     O18       5.69491  1_455   S
    Zr12   O19       1.49651      .   S
    N2     O19       5.70909      .   S
    Zr12   O20       2.13586      .   S
    N6     O20       3.32511      .   S
    Zr21   O22       3.27889      .   S
    N11    O22       4.40540  1_455   S
    Zr21   O23       3.27887  1_545   S
    N9     O23       4.40528      .   S
    Zr21   O24       2.13563  1_655   S
    N4     O24       3.32477      .   S
    Zr21   O25       1.50307  1_645   S
    N1     O25       5.71320  1_545   S
    Zr21   O26       1.49900  1_545   S
    N1     O26       5.69107  1_545   S
    Zr21   O27       2.13542  1_545   S
    N10    O27       3.32486      .   S
    Zr21   O28       1.50869  1_655   S
    N1     O28       5.70343      .   S
    Zr21   O29       1.49357      .   S
    N1     O29       5.70077      .   S
    Zr30   O31       2.11487  1_656   S
    N11    O31       3.29547      .   S
    Zr30   O32       2.11475      .   S
    N9     O32       3.29543      .   S
    Zr30   O33       3.29538  1_655   S
    N4     O33       4.43876      .   S
    Zr30   O34       1.50910  1_656   S
    N5     O34       5.71189  1_556   S
    Zr30   O35       1.50845  1_556   S
    N5     O35       5.69507  1_556   S
    Zr30   O36       3.29537  1_556   S
    N10    O36       4.43896      .   S
    Zr30   O37       1.51327  1_655   S
    N5     O37       5.70133      .   S
    Zr30   O38       1.50412      .   S
    N5     O38       5.70559      .   S
    Zr39   O40       3.29519      .   S
    N8     O40       4.43860      .   S
    Zr39   O41       3.29541  1_566   S
    N6     O41       4.43889      .   S
    Zr39   O42       2.11487  1_565   S
    N7     O42       3.29585      .   S
    Zr39   O43       1.50647      .   S
    N0     O43       5.70875  1_445   S
    Zr39   O44       1.51083      .   S
    N0     O44       5.69815  1_545   S
    Zr39   O45       2.11471  1_556   S
    N3     O45       3.29548      .   S
    Zr39   O46       1.50656  1_566   S
    N0     O46       5.70880  1_556   S
    Zr39   O47       1.51094  1_566   S
    N0     O47       5.69817  1_456   S
