# CIF file generated by openbabel 2.4.90, see http://openbabel.sf.net
data_I
_chemical_name_common ''
_cell_length_a 18.597
_cell_length_b 22.63
_cell_length_c 16.545
_cell_angle_alpha 107.033
_cell_angle_beta 90.063
_cell_angle_gamma 114.039
_space_group_name_H-M_alt 'P 1'
_space_group_name_Hall 'P 1'
loop_
    _symmetry_equiv_pos_as_xyz
    x,y,z
loop_
    _atom_site_label
    _atom_site_type_symbol
    _atom_site_fract_x
    _atom_site_fract_y
    _atom_site_fract_z
    _atom_site_occupancy
    H0      H    0.46734   0.26745   0.46953   1.000
    H1      H    0.46733   0.76745   0.46953   1.000
    H2      H    0.96733   0.26744   0.46950   1.000
    H3      H    0.96732   0.76745   0.46953   1.000
    H4      H    0.36442   0.42964   0.41902   1.000
    H5      H    0.36441   0.92964   0.41903   1.000
    H6      H    0.86440   0.42964   0.41903   1.000
    H7      H    0.86440   0.92964   0.41900   1.000
    H8      H    0.44898   0.45962   0.55530   1.000
    H9      H    0.44897   0.95962   0.55530   1.000
    H10     H    0.94896   0.45961   0.55530   1.000
    H11     H    0.94896   0.95962   0.55530   1.000
    H12     H    0.38530   0.19290   0.10530   1.000
    H13     H    0.38530   0.69290   0.10533   1.000
    H14     H    0.88529   0.19289   0.10530   1.000
    H15     H    0.88528   0.69290   0.10534   1.000
    H16     H    0.27925   0.21708   0.12782   1.000
    H17     H    0.27925   0.71709   0.12782   1.000
    H18     H    0.77924   0.21708   0.12782   1.000
    H19     H    0.77923   0.71709   0.12782   1.000
    H20     H    0.18617   0.09808   0.11148   1.000
    H21     H    0.18616   0.59808   0.11148   1.000
    H22     H    0.68616   0.09808   0.11148   1.000
    H23     H    0.68615   0.59808   0.11148   1.000
    H24     H    0.23142   0.10413   0.21130   1.000
    H25     H    0.23142   0.60413   0.21130   1.000
    H26     H    0.73141   0.10413   0.21130   1.000
    H27     H    0.73140   0.60413   0.21130   1.000
    H28     H    0.17727   0.15304   0.20874   1.000
    H29     H    0.17726   0.65304   0.20874   1.000
    H30     H    0.67726   0.15303   0.20874   1.000
    H31     H    0.67725   0.65304   0.20874   1.000
    H32     H    0.19974   0.23325   0.03030   1.000
    H33     H    0.19973   0.73325   0.03030   1.000
    H34     H    0.69972   0.23325   0.03030   1.000
    H35     H    0.69972   0.73325   0.03030   1.000
    H36     H    0.43612   0.07112   0.08099   1.000
    H37     H    0.43612   0.57113   0.08099   1.000
    H38     H    0.93612   0.07112   0.08100   1.000
    H39     H    0.93611   0.57113   0.08100   1.000
    H40     H    0.49055   0.04118   0.94462   1.000
    H41     H    0.49054   0.54119   0.94462   1.000
    H42     H    0.99054   0.04118   0.94462   1.000
    H43     H    0.99053   0.54118   0.94462   1.000
    H44     H    0.19311   0.30791   0.39404   1.000
    H45     H    0.19310   0.80792   0.39404   1.000
    H46     H    0.69310   0.30791   0.39404   1.000
    H47     H    0.69309   0.80791   0.39404   1.000
    H48     H    0.06291   0.28373   0.37237   1.000
    H49     H    0.06290   0.78373   0.37237   1.000
    H50     H    0.56289   0.28372   0.37237   1.000
    H51     H    0.56289   0.78373   0.37237   1.000
    H52     H    0.08767   0.40269   0.38873   1.000
    H53     H    0.08766   0.90269   0.38873   1.000
    H54     H    0.58766   0.40269   0.38874   1.000
    H55     H    0.58765   0.90269   0.38870   1.000
    H56     H    0.12638   0.39660   0.28872   1.000
    H57     H    0.12637   0.89660   0.28872   1.000
    H58     H    0.62637   0.39660   0.28870   1.000
    H59     H    0.62636   0.89661   0.28872   1.000
    H60     H    0.02383   0.34773   0.29164   1.000
    H61     H    0.02382   0.84773   0.29164   1.000
    H62     H    0.52382   0.34773   0.29165   1.000
    H63     H    0.52381   0.84774   0.29165   1.000
    H64     H    0.03266   0.23258   0.53050   1.000
    H65     H    0.03265   0.73259   0.53000   1.000
    H66     H    0.53265   0.23259   0.53049   1.000
    H67     H    0.53264   0.73259   0.53050   1.000
    C68     C    0.93308   0.91072   0.50578   1.000
    C69     C    0.29329   0.19052   0.16723   1.000
    C70     C    0.29329   0.69053   0.16723   1.000
    C71     C    0.79328   0.19052   0.16723   1.000
    H72     H    0.13558   0.07039   0.58099   1.000
    H73     H    0.13557   0.57039   0.58100   1.000
    H74     H    0.63556   0.07039   0.58100   1.000
    H75     H    0.63556   0.57040   0.58000   1.000
    H76     H    0.05102   0.04041   0.44472   1.000
    H77     H    0.05101   0.54042   0.44472   1.000
    H78     H    0.55101   0.04041   0.44472   1.000
    H79     H    0.55100   0.54042   0.44472   1.000
    H80     H    0.11470   0.30714   0.89460   1.000
    H81     H    0.11469   0.80715   0.89468   1.000
    H82     H    0.61469   0.30715   0.89468   1.000
    H83     H    0.61468   0.80715   0.89468   1.000
    H84     H    0.22075   0.28295   0.87220   1.000
    H85     H    0.22074   0.78295   0.87220   1.000
    H86     H    0.72073   0.28295   0.87220   1.000
    H87     H    0.72073   0.78296   0.87220   1.000
    H88     H    0.31383   0.40195   0.88854   1.000
    H89     H    0.31383   0.90195   0.88853   1.000
    H90     H    0.81383   0.40195   0.88853   1.000
    H91     H    0.81382   0.90196   0.88854   1.000
    H92     H    0.26858   0.39590   0.78871   1.000
    H93     H    0.26857   0.89590   0.78871   1.000
    H94     H    0.76857   0.39590   0.78871   1.000
    H95     H    0.76856   0.89591   0.78871   1.000
    H96     H    0.32273   0.34699   0.79127   1.000
    H97     H    0.32273   0.84699   0.79127   1.000
    H98     H    0.82272   0.34699   0.79127   1.000
    H99     H    0.82271   0.84700   0.79127   1.000
    C100    C    0.03797   0.13471   0.47904   1.000
    C101    C    0.03796   0.63471   0.47904   1.000
    C102    C    0.53795   0.13471   0.47905   1.000
    C103    C    0.53796   0.63472   0.47904   1.000
    C104    C    0.11415   0.10587   0.56987   1.000
    H105    H    0.30026   0.26679   0.96972   1.000
    H106    H    0.30026   0.76679   0.96972   1.000
    H107    H    0.80025   0.26678   0.96972   1.000
    H108    H    0.80024   0.76679   0.96972   1.000
    H109    H    0.06387   0.42890   0.91903   1.000
    H110    H    0.06387   0.92891   0.91900   1.000
    H111    H    0.56386   0.42891   0.91902   1.000
    H112    H    0.56385   0.92891   0.91902   1.000
    H113    H    0.00945   0.45885   0.05540   1.000
    H114    H    0.00944   0.95885   0.05540   1.000
    H115    H    0.50943   0.45885   0.05540   1.000
    H116    H    0.50943   0.95886   0.05540   1.000
    H117    H    0.30689   0.19212   0.60598   1.000
    H118    H    0.30688   0.69212   0.60598   1.000
    H119    H    0.80688   0.19212   0.60598   1.000
    H120    H    0.80687   0.69213   0.60598   1.000
    H121    H    0.43709   0.21630   0.62765   1.000
    H122    H    0.43708   0.71631   0.62765   1.000
    H123    H    0.93708   0.21630   0.62765   1.000
    H124    H    0.93707   0.71631   0.62765   1.000
    H125    H    0.41233   0.09734   0.61129   1.000
    H126    H    0.41232   0.59735   0.61129   1.000
    H127    H    0.91231   0.09734   0.61128   1.000
    H128    H    0.91231   0.59735   0.61128   1.000
    H129    H    0.37362   0.10343   0.71130   1.000
    H130    H    0.37361   0.60343   0.71130   1.000
    H131    H    0.87360   0.10343   0.71129   1.000
    H132    H    0.87360   0.60343   0.71129   1.000
    H133    H    0.47617   0.15230   0.70838   1.000
    H134    H    0.47616   0.65230   0.70838   1.000
    H135    H    0.97615   0.15229   0.70837   1.000
    H136    H    0.97615   0.65230   0.70837   1.000
    C137    C    0.44531   0.30255   0.45858   1.000
    C138    C    0.44530   0.80256   0.45858   1.000
    C139    C    0.94529   0.30255   0.45858   1.000
    C140    C    0.94529   0.80256   0.45858   1.000
    C141    C    0.01247   0.38495   0.60336   1.000
    C142    C    0.01246   0.88495   0.60336   1.000
    C143    C    0.51245   0.38495   0.60336   1.000
    C144    C    0.51245   0.88496   0.60336   1.000
    C145    C    0.46202   0.36532   0.52098   1.000
    C146    C    0.46202   0.86532   0.52098   1.000
    C147    C    0.96201   0.36532   0.52098   1.000
    C148    C    0.96200   0.86532   0.52098   1.000
    C149    C    0.38585   0.39416   0.43015   1.000
    C150    C    0.38584   0.89416   0.43015   1.000
    C151    C    0.88584   0.39416   0.43015   1.000
    C152    C    0.88584   0.89416   0.43015   1.000
    C153    C    0.40036   0.28682   0.38147   1.000
    C154    C    0.40035   0.78683   0.38147   1.000
    C155    C    0.90035   0.28682   0.38140   1.000
    C156    C    0.90034   0.78682   0.38147   1.000
    C157    C    0.33409   0.24187   0.25340   1.000
    C158    C    0.33409   0.74187   0.25340   1.000
    C159    C    0.83408   0.24186   0.25340   1.000
    C160    C    0.83407   0.74187   0.25340   1.000
    C161    C    0.36883   0.33120   0.36766   1.000
    C162    C    0.36882   0.83120   0.36766   1.000
    C163    C    0.86882   0.33119   0.36766   1.000
    C164    C    0.86881   0.83120   0.36766   1.000
    C165    C    0.43310   0.41072   0.50578   1.000
    C166    C    0.43309   0.91072   0.50579   1.000
    C167    C    0.93308   0.41071   0.50579   1.000
    O168    O    0.47239   0.16138   0.38139   1.000
    O169    O    0.47238   0.66139   0.38139   1.000
    O170    O    0.97238   0.16138   0.38139   1.000
    O171    O    0.97237   0.66138   0.38139   1.000
    O172    O    0.15619   0.34028   0.87421   1.000
    C173    C    0.79327   0.69053   0.16723   1.000
    C174    C    0.21722   0.13263   0.17521   1.000
    C175    C    0.21721   0.63263   0.17521   1.000
    C176    C    0.71721   0.13263   0.17521   1.000
    C177    C    0.71720   0.63263   0.17521   1.000
    C178    C    0.14291   0.19816   0.04126   1.000
    C179    C    0.14290   0.69816   0.04126   1.000
    C180    C    0.64290   0.19816   0.04126   1.000
    C181    C    0.64289   0.69817   0.04126   1.000
    C182    C    0.12800   0.11561   0.89658   1.000
    C183    C    0.12799   0.61562   0.89658   1.000
    C184    C    0.62799   0.11561   0.89658   1.000
    C185    C    0.62799   0.61562   0.89658   1.000
    C186    C    0.09724   0.13541   0.97890   1.000
    C187    C    0.09723   0.63541   0.97890   1.000
    C188    C    0.59722   0.13541   0.97893   1.000
    C189    C    0.59722   0.63541   0.97893   1.000
    C190    C    0.49270   0.10658   0.06982   1.000
    C191    C    0.49269   0.60659   0.06982   1.000
    C192    C    0.99269   0.10658   0.06982   1.000
    C193    C    0.99268   0.60659   0.06982   1.000
    C194    C    0.11376   0.21390   0.11841   1.000
    C195    C    0.11375   0.71390   0.11841   1.000
    C196    C    0.61375   0.21390   0.11841   1.000
    C197    C    0.61374   0.71390   0.11841   1.000
    C198    C    0.09243   0.25884   0.24653   1.000
    C199    C    0.09243   0.75885   0.24653   1.000
    C200    C    0.59242   0.25884   0.24653   1.000
    C201    C    0.59242   0.75885   0.24653   1.000
    C202    C    0.03831   0.16953   0.13231   1.000
    C203    C    0.03830   0.66953   0.13231   1.000
    C204    C    0.53830   0.16952   0.13231   1.000
    C205    C    0.53829   0.66953   0.13231   1.000
    C206    C    0.02332   0.09006   0.99416   1.000
    C207    C    0.02331   0.59006   0.99416   1.000
    C208    C    0.52330   0.09006   0.99416   1.000
    C209    C    0.52330   0.59006   0.99416   1.000
    C210    C    0.10295   0.31022   0.33273   1.000
    C211    C    0.10294   0.81022   0.33273   1.000
    C212    C    0.60294   0.31022   0.33274   1.000
    C213    C    0.60293   0.81022   0.33274   1.000
    C214    C    0.08415   0.36812   0.32495   1.000
    C215    C    0.08415   0.86812   0.32495   1.000
    C216    C    0.58414   0.36811   0.32495   1.000
    C217    C    0.58414   0.86812   0.32495   1.000
    C218    C    0.05469   0.19748   0.54144   1.000
    C219    C    0.05469   0.69748   0.54144   1.000
    C220    C    0.55468   0.19748   0.54144   1.000
    C221    C    0.55467   0.69748   0.54144   1.000
    C222    C    0.48751   0.11508   0.39667   1.000
    C223    C    0.48752   0.61508   0.39660   1.000
    C224    C    0.98751   0.11508   0.39666   1.000
    C225    C    0.98750   0.61508   0.39667   1.000
    C226    C    0.11414   0.60587   0.56987   1.000
    C227    C    0.61413   0.10587   0.56987   1.000
    C228    C    0.61413   0.60588   0.56987   1.000
    C229    C    0.09964   0.21321   0.61856   1.000
    C230    C    0.09963   0.71321   0.61856   1.000
    C231    C    0.59962   0.21321   0.61856   1.000
    C232    C    0.59962   0.71322   0.61856   1.000
    C233    C    0.16591   0.25816   0.74662   1.000
    C234    C    0.16590   0.75817   0.74662   1.000
    C235    C    0.66590   0.25817   0.74662   1.000
    C236    C    0.66589   0.75817   0.74662   1.000
    C237    C    0.13117   0.16883   0.63236   1.000
    C238    C    0.13116   0.66884   0.63236   1.000
    C239    C    0.63116   0.16884   0.63236   1.000
    C240    C    0.63115   0.66884   0.63230   1.000
    C241    C    0.06690   0.08932   0.49424   1.000
    C242    C    0.06689   0.58932   0.49424   1.000
    C243    C    0.56689   0.08932   0.49420   1.000
    C244    C    0.56688   0.58932   0.49424   1.000
    C245    C    0.20671   0.30951   0.83279   1.000
    C246    C    0.20670   0.80951   0.83279   1.000
    C247    C    0.70669   0.30951   0.83270   1.000
    C248    C    0.70669   0.80952   0.83279   1.000
    C249    C    0.28278   0.36740   0.82480   1.000
    C250    C    0.28278   0.86740   0.82480   1.000
    C251    C    0.78277   0.36740   0.82480   1.000
    C252    C    0.78277   0.86741   0.82480   1.000
    C253    C    0.35709   0.30187   0.95876   1.000
    C254    C    0.35708   0.80187   0.95876   1.000
    C255    C    0.85707   0.30187   0.95876   1.000
    C256    C    0.85707   0.80187   0.95876   1.000
    C257    C    0.37200   0.38442   0.10344   1.000
    C258    C    0.37199   0.88443   0.10344   1.000
    C259    C    0.87198   0.38442   0.10344   1.000
    C260    C    0.87198   0.88443   0.10344   1.000
    C261    C    0.40276   0.36463   0.02109   1.000
    C262    C    0.40276   0.86463   0.02100   1.000
    C263    C    0.90275   0.36462   0.02109   1.000
    C264    C    0.90275   0.86463   0.02109   1.000
    C265    C    0.00730   0.39344   0.93020   1.000
    C266    C    0.00730   0.89345   0.93020   1.000
    C267    C    0.50729   0.39345   0.93020   1.000
    C268    C    0.50728   0.89345   0.93020   1.000
    C269    C    0.38624   0.28613   0.88161   1.000
    C270    C    0.38623   0.78614   0.88161   1.000
    C271    C    0.88622   0.28613   0.88161   1.000
    C272    C    0.88622   0.78614   0.88161   1.000
    C273    C    0.40757   0.24119   0.75349   1.000
    C274    C    0.40756   0.74119   0.75349   1.000
    C275    C    0.90755   0.24119   0.75349   1.000
    C276    C    0.90755   0.74119   0.75349   1.000
    C277    C    0.46169   0.33051   0.86771   1.000
    C278    C    0.46168   0.83051   0.86771   1.000
    C279    C    0.96167   0.33050   0.86771   1.000
    C280    C    0.96167   0.83051   0.86771   1.000
    C281    C    0.47668   0.40998   0.00586   1.000
    C282    C    0.47667   0.90998   0.00586   1.000
    C283    C    0.97667   0.40997   0.00586   1.000
    C284    C    0.97666   0.90998   0.00586   1.000
    C285    C    0.39705   0.18981   0.66729   1.000
    C286    C    0.39704   0.68981   0.66729   1.000
    C287    C    0.89703   0.18981   0.66729   1.000
    C288    C    0.89703   0.68982   0.66729   1.000
    C289    C    0.41585   0.13191   0.67507   1.000
    C290    C    0.41584   0.63192   0.67507   1.000
    C291    C    0.91583   0.13191   0.67507   1.000
    C292    C    0.91582   0.63192   0.67507   1.000
    N293    N    0.37850   0.23103   0.30727   1.000
    N294    N    0.37849   0.73104   0.30727   1.000
    N295    N    0.87848   0.23103   0.30727   1.000
    N296    N    0.87848   0.73104   0.30727   1.000
    N297    N    0.32607   0.30101   0.28603   1.000
    N298    N    0.32606   0.80101   0.28600   1.000
    N299    N    0.82605   0.30100   0.28603   1.000
    N300    N    0.82605   0.80101   0.28600   1.000
    N301    N    0.14739   0.26969   0.19250   1.000
    N302    N    0.14738   0.76969   0.19250   1.000
    N303    N    0.64738   0.26969   0.19259   1.000
    N304    N    0.64737   0.76970   0.19259   1.000
    N305    N    0.02573   0.19968   0.21400   1.000
    N306    N    0.02572   0.69968   0.21400   1.000
    N307    N    0.52571   0.19968   0.21400   1.000
    N308    N    0.52571   0.69969   0.21400   1.000
    N309    N    0.12150   0.26899   0.69275   1.000
    N310    N    0.12150   0.76900   0.69275   1.000
    N311    N    0.62149   0.26900   0.69275   1.000
    N312    N    0.62148   0.76900   0.69275   1.000
    N313    N    0.17393   0.19902   0.71399   1.000
    N314    N    0.17393   0.69903   0.71399   1.000
    N315    N    0.67392   0.19903   0.71399   1.000
    N316    N    0.67391   0.69903   0.71399   1.000
    N317    N    0.35261   0.23034   0.80744   1.000
    N318    N    0.35260   0.73034   0.80744   1.000
    N319    N    0.85259   0.23034   0.80744   1.000
    N320    N    0.85259   0.73035   0.80744   1.000
    N321    N    0.47427   0.30035   0.78602   1.000
    N322    N    0.47427   0.80035   0.78602   1.000
    N323    N    0.97426   0.30035   0.78602   1.000
    N324    N    0.97426   0.80035   0.78602   1.000
    O325    O    0.03722   0.44690   0.65207   1.000
    O326    O    0.03722   0.94690   0.65206   1.000
    O327    O    0.53721   0.44690   0.65206   1.000
    O328    O    0.53721   0.94690   0.65207   1.000
    O329    O    0.02761   0.33865   0.61863   1.000
    O330    O    0.02761   0.83865   0.61863   1.000
    O331    O    0.52760   0.33865   0.61863   1.000
    O332    O    0.52759   0.83865   0.61863   1.000
    O333    O    0.34381   0.15976   0.12580   1.000
    O334    O    0.34381   0.65976   0.12580   1.000
    O335    O    0.84380   0.15975   0.12580   1.000
    O336    O    0.84379   0.65975   0.12581   1.000
    O337    O    0.09055   0.05384   0.84758   1.000
    O338    O    0.09055   0.55384   0.84758   1.000
    O339    O    0.59054   0.05384   0.84758   1.000
    O340    O    0.59053   0.55385   0.84757   1.000
    O341    O    0.18962   0.16153   0.88157   1.000
    O342    O    0.18961   0.66153   0.88157   1.000
    O343    O    0.68961   0.16153   0.88157   1.000
    O344    O    0.68960   0.66154   0.88157   1.000
    O345    O    0.18422   0.34103   0.37372   1.000
    O346    O    0.18421   0.84103   0.37372   1.000
    O347    O    0.68421   0.34103   0.37372   1.000
    O348    O    0.68420   0.84103   0.37372   1.000
    O349    O    0.46277   0.05313   0.34795   1.000
    O350    O    0.46276   0.55314   0.34796   1.000
    O351    O    0.96276   0.05313   0.34796   1.000
    O352    O    0.96275   0.55313   0.34796   1.000
    O353    O    0.15618   0.84029   0.87421   1.000
    O354    O    0.65618   0.34029   0.87421   1.000
    O355    O    0.65617   0.84029   0.87421   1.000
    O356    O    0.40943   0.44620   0.15243   1.000
    O357    O    0.40943   0.94620   0.15243   1.000
    O358    O    0.90942   0.44619   0.15244   1.000
    O359    O    0.90942   0.94620   0.15240   1.000
    O360    O    0.31039   0.33851   0.11840   1.000
    O361    O    0.31038   0.83851   0.11845   1.000
    O362    O    0.81037   0.33850   0.11840   1.000
    O363    O    0.81037   0.83851   0.11840   1.000
    O364    O    0.31578   0.15900   0.62630   1.000
    O365    O    0.31577   0.65900   0.62630   1.000
    O366    O    0.81576   0.15900   0.62630   1.000
    O367    O    0.81576   0.65901   0.62630   1.000
loop_
    _geom_bond_atom_site_label_1
    _geom_bond_atom_site_label_2
    _geom_bond_distance
    _geom_bond_site_symmetry_2
    _ccdc_geom_bond_type
    C281   C261      1.41749      .   S
    C281   H115      1.08863      .   S
    C281   C267      1.38983  1_554   S
    C282   C262      1.41690      .   S
    C282   H116      1.08862      .   S
    C282   C268      1.38984  1_554   S
    C283   C263      1.41752      .   S
    C283   H113      1.08869  1_655   S
    C283   C265      1.39006  1_654   S
    C284   C264      1.41749      .   S
    C284   H114      1.08869  1_655   S
    C284   C266      1.39007  1_654   S
    C262   C258      1.49702      .   S
    C262   C254      1.39903  1_554   S
    C264   C260      1.49580      .   S
    C264   C256      1.39967  1_554   S
    C263   C259      1.49580      .   S
    C263   C255      1.39969  1_554   S
    C261   C257      1.49580      .   S
    C261   C253      1.39969  1_554   S
    H32    C178      1.08684      .   S
    H33    C179      1.08684      .   S
    H34    C180      1.08684      .   S
    H35    C181      1.08683      .   S
    C178   C194      1.39375      .   S
    C178   C186      1.39988  1_554   S
    C181   C197      1.39374      .   S
    C181   C189      1.39967  1_554   S
    C180   C196      1.39375      .   S
    C180   C188      1.39966  1_554   S
    C179   C195      1.39375      .   S
    C179   C187      1.39988  1_554   S
    C190   H36       1.08831      .   S
    C190   C204      1.40289      .   S
    C190   C208      1.38982  1_554   S
    C191   H37       1.08831      .   S
    C191   C205      1.40290      .   S
    C191   C209      1.38980  1_554   S
    C192   H38       1.08836      .   S
    C192   C202      1.40299  1_655   S
    C192   C206      1.39007  1_654   S
    C193   H39       1.08835      .   S
    C193   C203      1.40300  1_655   S
    C193   C207      1.39008  1_654   S
    C258   O361      1.27910      .   S
    C258   O357      1.27986      .   S
    C259   O362      1.27872      .   S
    C259   O358      1.27989      .   S
    C260   O363      1.27875      .   S
    C260   O359      1.27967      .   S
    C257   O360      1.27873      .   S
    C257   O356      1.27984      .   S
    H12    O333      0.97523      .   S
    H14    O335      0.97523      .   S
    H13    O334      0.97494      .   S
    H15    O336      0.97495      .   S
    H23    C177      1.09744      .   S
    H22    C176      1.09744      .   S
    H20    C174      1.09744      .   S
    H21    C175      1.09744      .   S
    C195   C203      1.42063      .   S
    C195   N302      1.39145      .   S
    C197   C205      1.42064      .   S
    C197   N304      1.39235      .   S
    C196   C204      1.42064      .   S
    C196   N303      1.39235      .   S
    C194   C202      1.42063      .   S
    C194   N301      1.39144      .   S
    O335   C71       1.44643      .   S
    O334   C70       1.44642      .   S
    O333   C69       1.44642      .   S
    O336   C173      1.44637      .   S
    H18    C71       1.10077      .   S
    H17    C70       1.10078      .   S
    H16    C69       1.10078      .   S
    H19    C173      1.10076      .   S
    C202   N305      1.39199      .   S
    C203   N306      1.39200      .   S
    C204   N307      1.39199      .   S
    C205   N308      1.39198      .   S
    C69    C174      1.52551      .   S
    C69    C157      1.50571      .   S
    C70    C175      1.52551      .   S
    C70    C158      1.50570      .   S
    C71    C176      1.52551      .   S
    C71    C159      1.50570      .   S
    C173   C177      1.52552      .   S
    C173   C160      1.50571      .   S
    C177   H31       1.09695      .   S
    C177   H27       1.09837      .   S
    C174   H28       1.09695      .   S
    C174   H24       1.09838      .   S
    C175   H29       1.09696      .   S
    C175   H25       1.09838      .   S
    C176   H30       1.09694      .   S
    C176   H26       1.09838      .   S
    N302   C199      1.35283      .   S
    N301   C198      1.35282      .   S
    N303   C200      1.35177      .   S
    N304   C201      1.35175      .   S
    N305   C198      1.35807      .   S
    N307   C200      1.35808      .   S
    N308   C201      1.35806      .   S
    N306   C199      1.35806      .   S
    C198   C210      1.50555      .   S
    C199   C211      1.50553      .   S
    C200   C212      1.50566      .   S
    C201   C213      1.50565      .   S
    C157   N297      1.35814      .   S
    C157   N293      1.35193      .   S
    C158   N298      1.35810      .   S
    C158   N294      1.35191      .   S
    C159   N299      1.35815      .   S
    C159   N295      1.35191      .   S
    C160   N300      1.35811      .   S
    C160   N296      1.35191      .   S
    N298   C162      1.39240      .   S
    N300   C164      1.39242      .   S
    N297   C161      1.39201      .   S
    N299   C163      1.39200      .   S
    H58    C216      1.09861      .   S
    H59    C217      1.09839      .   S
    H56    C214      1.09838      .   S
    H57    C215      1.09838      .   S
    H61    C215      1.09692      .   S
    H60    C214      1.09692      .   S
    H62    C216      1.09685      .   S
    H63    C217      1.09686      .   S
    N293   C153      1.39245      .   S
    N294   C154      1.39246      .   S
    N295   C155      1.39175      .   S
    N296   C156      1.39245      .   S
    C217   C213      1.52563      .   S
    C217   H55       1.09709      .   S
    C215   C211      1.52558      .   S
    C215   H53       1.09746      .   S
    C216   C212      1.52562      .   S
    C216   H54       1.09759      .   S
    C214   C210      1.52556      .   S
    C214   H52       1.09746      .   S
    C210   H48       1.10082      .   S
    C210   O345      1.44654      .   S
    C211   H49       1.10082      .   S
    C211   O346      1.44654      .   S
    C213   H51       1.10071      .   S
    C213   O348      1.44648      .   S
    C212   H50       1.10071      .   S
    C212   O347      1.44649      .   S
    O349   C222      1.27991      .   S
    O352   C225      1.27989      .   S
    O351   C224      1.27986      .   S
    O350   C223      1.27954      .   S
    C162   C154      1.42069      .   S
    C162   C150      1.40293      .   S
    C164   C156      1.42069      .   S
    C164   C152      1.40293      .   S
    C163   C155      1.42026      .   S
    C163   C151      1.40293      .   S
    C161   C153      1.42068      .   S
    C161   C149      1.40293      .   S
    O347   H46       0.97496      .   S
    O348   H47       0.97495      .   S
    O346   H45       0.97492      .   S
    O345   H44       0.97493      .   S
    O171   C225      1.27920      .   S
    O170   C224      1.27917      .   S
    O168   C222      1.27916      .   S
    O169   C223      1.27875      .   S
    C155   C139      1.39459      .   S
    C156   C140      1.39364      .   S
    C154   C138      1.39361      .   S
    C153   C137      1.39363      .   S
    C223   C103      1.49672      .   S
    C224   C100      1.49614  1_655   S
    C222   C102      1.49591      .   S
    C225   C101      1.49601  1_655   S
    H7     C152      1.08847      .   S
    H4     C149      1.08833      .   S
    H5     C150      1.08828      .   S
    H6     C151      1.08827      .   S
    C149   C165      1.39031      .   S
    C152   C68       1.39032      .   S
    C151   C167      1.39043      .   S
    C150   C166      1.39043      .   S
    H78    C243      1.08839      .   S
    H76    C241      1.08867      .   S
    H77    C242      1.08868      .   S
    H79    C244      1.08867      .   S
    C140   H3        1.08684      .   S
    C140   C148      1.40015      .   S
    C139   H2        1.08668      .   S
    C139   C147      1.40017      .   S
    C138   H1        1.08686      .   S
    C138   C146      1.40017      .   S
    C137   H0        1.08684      .   S
    C137   C145      1.40015      .   S
    C103   C244      1.41749      .   S
    C103   C221      1.40016      .   S
    C100   C241      1.41748      .   S
    C100   C218      1.40016      .   S
    C101   C242      1.41749      .   S
    C101   C219      1.40020      .   S
    C102   C243      1.41722      .   S
    C102   C220      1.40016      .   S
    C243   C227      1.39080      .   S
    C241   C104      1.39031      .   S
    C242   C226      1.39029      .   S
    C244   C228      1.39031      .   S
    C68    C148      1.41748      .   S
    C68    H11       1.08866      .   S
    C165   C145      1.41749      .   S
    C165   H8        1.08866      .   S
    C166   C146      1.41745      .   S
    C166   H9        1.08859      .   S
    C167   C147      1.41744      .   S
    C167   H10       1.08859      .   S
    C148   C142      1.49613  1_655   S
    C145   C143      1.49589      .   S
    C146   C144      1.49590      .   S
    C147   C141      1.49614  1_655   S
    H65    C219      1.08995      .   S
    H66    C220      1.08686      .   S
    H67    C221      1.08679      .   S
    H64    C218      1.08681      .   S
    C219   C230      1.39376      .   S
    C218   C229      1.39376      .   S
    C221   C232      1.39378      .   S
    C220   C231      1.39372      .   S
    C226   H73       1.08835      .   S
    C226   C238      1.40294      .   S
    C227   H74       1.08836      .   S
    C227   C239      1.40294      .   S
    C228   H75       1.08209      .   S
    C228   C240      1.40249      .   S
    C104   H72       1.08829      .   S
    C104   C237      1.40292      .   S
    C144   O332      1.27914      .   S
    C144   O328      1.27989      .   S
    C143   O331      1.27920      .   S
    C143   O327      1.27986      .   S
    C142   O330      1.27919      .   S
    C142   O326      1.27986      .   S
    C141   O329      1.27915      .   S
    C141   O325      1.27989      .   S
    H117   O364      0.97494      .   S
    H118   O365      0.97496      .   S
    H119   O366      0.97498      .   S
    H120   O367      0.97495      .   S
    H127   C291      1.09757      .   S
    H128   C292      1.09758      .   S
    H126   C290      1.09745      .   S
    H125   C289      1.09746      .   S
    C232   C240      1.42025      .   S
    C232   N312      1.39236      .   S
    C231   C239      1.42064      .   S
    C231   N311      1.39240      .   S
    C230   C238      1.42063      .   S
    C230   N310      1.39237      .   S
    C229   C237      1.42063      .   S
    C229   N309      1.39236      .   S
    O367   C288      1.44653      .   S
    O364   C285      1.44652      .   S
    O365   C286      1.44654      .   S
    O366   C287      1.44652      .   S
    H124   C288      1.10084      .   S
    H122   C286      1.10082      .   S
    H121   C285      1.10082      .   S
    H123   C287      1.10084      .   S
    C240   N316      1.39283      .   S
    C237   N313      1.39201      .   S
    C238   N314      1.39201      .   S
    C239   N315      1.39198      .   S
    C288   C292      1.52557      .   S
    C288   C276      1.50553      .   S
    C285   C289      1.52557      .   S
    C285   C273      1.50553      .   S
    C286   C290      1.52557      .   S
    C286   C274      1.50555      .   S
    C287   C291      1.52559      .   S
    C287   C275      1.50552      .   S
    C289   H133      1.09691      .   S
    C289   H129      1.09840      .   S
    C292   H136      1.09685      .   S
    C292   H132      1.09829      .   S
    C291   H135      1.09687      .   S
    C291   H131      1.09827      .   S
    C290   H134      1.09691      .   S
    C290   H130      1.09840      .   S
    N310   C234      1.35191      .   S
    N309   C233      1.35192      .   S
    N311   C235      1.35192      .   S
    N312   C236      1.35191      .   S
    N314   C234      1.35815      .   S
    N315   C235      1.35815      .   S
    N313   C233      1.35815      .   S
    N316   C236      1.35815      .   S
    C233   C245      1.50572      .   S
    C234   C246      1.50573      .   S
    C235   C247      1.50465      .   S
    C236   C248      1.50573      .   S
    C275   N323      1.35807      .   S
    C275   N319      1.35187      .   S
    C274   N322      1.35807      .   S
    C274   N318      1.35187      .   S
    C273   N321      1.35807      .   S
    C273   N317      1.35188      .   S
    C276   N324      1.35806      .   S
    C276   N320      1.35188      .   S
    N321   C277      1.39200      .   S
    N322   C278      1.39200      .   S
    N324   C280      1.39200      .   S
    N323   C279      1.39198      .   S
    H92    C249      1.09834      .   S
    H95    C252      1.09832      .   S
    H94    C251      1.09834      .   S
    H93    C250      1.09834      .   S
    H96    C249      1.09698      .   S
    H99    C252      1.09697      .   S
    H98    C251      1.09695      .   S
    H97    C250      1.09694      .   S
    N317   C269      1.39227      .   S
    N318   C270      1.39227      .   S
    N319   C271      1.39227      .   S
    N320   C272      1.39226      .   S
    C252   C248      1.52555      .   S
    C252   H91       1.09758      .   S
    C251   C247      1.52503      .   S
    C251   H90       1.09747      .   S
    C249   C245      1.52555      .   S
    C249   H88       1.09758      .   S
    C250   C246      1.52554      .   S
    C250   H89       1.09746      .   S
    C247   H86       1.10184      .   S
    C247   O354      1.44690      .   S
    C248   H87       1.10072      .   S
    C248   O355      1.44640      .   S
    C246   H85       1.10072      .   S
    C246   O353      1.44640      .   S
    C245   H84       1.10071      .   S
    C245   O172      1.44640      .   S
    O340   C185      1.27987      .   S
    O337   C182      1.27986      .   S
    O338   C183      1.27986      .   S
    O339   C184      1.27985      .   S
    C277   C269      1.42064      .   S
    C277   C267      1.40292      .   S
    C278   C270      1.42063      .   S
    C278   C268      1.40292      .   S
    C279   C271      1.42064      .   S
    C279   C265      1.40300  1_655   S
    C280   C272      1.42064      .   S
    C280   C266      1.40298  1_655   S
    O355   H83       0.97487      .   S
    O354   H82       0.97486      .   S
    O353   H81       0.97487      .   S
    O172   H80       0.97413      .   S
    O344   C185      1.27914      .   S
    O341   C182      1.27914      .   S
    O342   C183      1.27914      .   S
    O343   C184      1.27914      .   S
    C270   C254      1.39375      .   S
    C269   C253      1.39375      .   S
    C271   C255      1.39373      .   S
    C272   C256      1.39374      .   S
    C182   C186      1.49537      .   S
    C183   C187      1.49538      .   S
    C184   C188      1.49578      .   S
    C185   C189      1.49579      .   S
    H110   C266      1.08849      .   S
    H111   C267      1.08834      .   S
    H112   C268      1.08834      .   S
    H109   C265      1.08830      .   S
    H42    C206      1.08868  1_655   S
    H40    C208      1.08861      .   S
    H43    C207      1.08869  1_655   S
    H41    C209      1.08861      .   S
    C256   H108      1.08683      .   S
    C255   H107      1.08683      .   S
    C254   H106      1.08682      .   S
    C253   H105      1.08682      .   S
    C187   C207      1.41767      .   S
    C186   C206      1.41768      .   S
    C189   C209      1.41751      .   S
    C188   C208      1.41750      .   S
