# CIF file generated by openbabel 2.4.90, see http://openbabel.sf.net
data_I
_chemical_name_common ''
_cell_length_a 18.597
_cell_length_b 22.63
_cell_length_c 16.545
_cell_angle_alpha 107.033
_cell_angle_beta 90.063
_cell_angle_gamma 114.039
_space_group_name_H-M_alt 'P 1'
_space_group_name_Hall 'P 1'
loop_
    _symmetry_equiv_pos_as_xyz
    x,y,z
loop_
    _atom_site_label
    _atom_site_type_symbol
    _atom_site_fract_x
    _atom_site_fract_y
    _atom_site_fract_z
    _atom_site_occupancy
    Zn0     Zn   0.07267   0.83591   0.72932   1.000
    Zn1     Zn   0.57267   0.33591   0.72932   1.000
    Zn2     Zn   0.57266   0.83591   0.72932   1.000
    Zn3     Zn   0.23741   0.16365   0.77075   1.000
    Zn4     Zn   0.23740   0.66365   0.77075   1.000
    Zn5     Zn   0.73739   0.16365   0.77075   1.000
    Zn6     Zn   0.73739   0.66365   0.77075   1.000
    Zn7     Zn   0.42732   0.16413   0.27070   1.000
    Zn8     Zn   0.42731   0.66413   0.27070   1.000
    Zn9     Zn   0.92731   0.16413   0.27070   1.000
    Zn10    Zn   0.92730   0.66413   0.27070   1.000
    Zn11    Zn   0.26259   0.33638   0.22927   1.000
    Zn12    Zn   0.26259   0.83638   0.22927   1.000
    Zn13    Zn   0.76258   0.33638   0.22927   1.000
    Zn14    Zn   0.76258   0.83638   0.22927   1.000
    Zn15    Zn   0.12467   0.00006   0.74999   1.000
    Zn16    Zn   0.12466   0.50007   0.74999   1.000
    Zn17    Zn   0.62465   0.00007   0.74999   1.000
    Zn18    Zn   0.62465   0.50007   0.74999   1.000
    Zn19    Zn   0.37533   0.99997   0.25000   1.000
    Zn20    Zn   0.37533   0.49998   0.25000   1.000
    Zn21    Zn   0.87532   0.99997   0.25000   1.000
    Zn22    Zn   0.87532   0.49997   0.25000   1.000
    Zn23    Zn   0.07268   0.33590   0.72932   1.000
    H24     H    0.17098   0.44181   0.83808   1.000
    H25     H    0.17098   0.94182   0.83808   1.000
    H26     H    0.67097   0.44182   0.83808   1.000
    H27     H    0.67096   0.94182   0.83808   1.000
    H28     H    0.22981   0.05732   0.66236   1.000
    H29     H    0.22980   0.55732   0.66236   1.000
    H30     H    0.72979   0.05732   0.66236   1.000
    H31     H    0.72979   0.55732   0.66236   1.000
    H32     H    0.32902   0.05822   0.16194   1.000
    H33     H    0.32902   0.55823   0.16194   1.000
    H34     H    0.82901   0.05822   0.16194   1.000
    H35     H    0.82900   0.55822   0.16194   1.000
    H36     H    0.27019   0.44271   0.33765   1.000
    H37     H    0.27018   0.94272   0.33765   1.000
    H38     H    0.77018   0.44271   0.33766   1.000
    H39     H    0.77017   0.94272   0.33766   1.000
    O40     O    0.35323   0.56828   0.21923   1.000
    O41     O    0.85322   0.06828   0.21923   1.000
    O42     O    0.85322   0.56828   0.21923   1.000
    O43     O    0.14676   0.43176   0.78079   1.000
    O44     O    0.14675   0.93176   0.78079   1.000
    O45     O    0.64674   0.43176   0.78079   1.000
    O46     O    0.64674   0.93176   0.78079   1.000
    O47     O    0.21569   0.06759   0.71964   1.000
    O48     O    0.21569   0.56759   0.71964   1.000
    O49     O    0.71568   0.06759   0.71963   1.000
    O50     O    0.71567   0.56760   0.71963   1.000
    O51     O    0.35323   0.06828   0.21923   1.000
    O52     O    0.28431   0.43244   0.28038   1.000
    O53     O    0.28430   0.93244   0.28038   1.000
    O54     O    0.78429   0.43244   0.28038   1.000
    O55     O    0.78429   0.93244   0.28038   1.000
loop_
    _geom_bond_atom_site_label_1
    _geom_bond_atom_site_label_2
    _geom_bond_distance
    _geom_bond_site_symmetry_2
    _ccdc_geom_bond_type
    H35    O42       0.97066      .   S
    H34    O41       0.97064      .   S
    H32    O51       0.97064      .   S
    H33    O40       0.97064      .   S
    O51    Zn19      1.94827  1_545   S
    O40    Zn20      1.94827      .   S
    O41    Zn21      1.94826  1_545   S
    O42    Zn22      1.94829      .   S
    Zn21   O55       1.94882      .   S
    Zn22   O54       1.94884      .   S
    Zn20   O52       1.94885      .   S
    Zn19   O53       1.94885      .   S
    O52    H36       0.97057      .   S
    O53    H37       0.97058      .   S
    O54    H38       0.97071      .   S
    O55    H39       0.97071      .   S
    H29    O48       0.97069      .   S
    H30    O49       0.97052      .   S
    H31    O50       0.97053      .   S
    H28    O47       0.97070      .   S
    O50    Zn18      1.94861      .   S
    O49    Zn17      1.94862      .   S
    O48    Zn16      1.94856      .   S
    O47    Zn15      1.94855      .   S
    Zn15   O44       1.94824  1_545   S
    Zn16   O43       1.94852      .   S
    Zn17   O46       1.94824  1_545   S
    Zn18   O45       1.94851      .   S
    O46    H27       0.97073      .   S
    O45    H26       0.97075      .   S
    O44    H25       0.97074      .   S
    O43    H24       0.97072      .   S
    O43    Zn23      1.95168      .   S
    O44    Zn0       1.95167      .   S
    O45    Zn1       1.95166      .   S
    O46    Zn2       1.95168      .   S
    O47    Zn3       1.95210      .   S
    O48    Zn4       1.95211      .   S
    O49    Zn5       1.95211      .   S
    O50    Zn6       1.95210      .   S
    O51    Zn7       1.95166      .   S
    O40    Zn8       1.95165      .   S
    O41    Zn9       1.95167      .   S
    O42    Zn10      1.95166      .   S
    O52    Zn11      1.95212      .   S
    O53    Zn12      1.95213      .   S
    O54    Zn13      1.95211      .   S
    O55    Zn14      1.95213      .   S
