# CIF file generated by openbabel 2.4.90, see http://openbabel.sf.net
data_I
_chemical_name_common ''
_cell_length_a 18.597
_cell_length_b 22.63
_cell_length_c 16.545
_cell_angle_alpha 107.033
_cell_angle_beta 90.063
_cell_angle_gamma 114.039
_space_group_name_H-M_alt 'P 1'
_space_group_name_Hall 'P 1'
loop_
    _symmetry_equiv_pos_as_xyz
    x,y,z
loop_
    _atom_site_label
    _atom_site_type_symbol
    _atom_site_fract_x
    _atom_site_fract_y
    _atom_site_fract_z
    _atom_site_occupancy
    N0      N    0.86981   0.78000   0.35053   1.000
    N1      N    0.86981   0.28000   0.35052   1.000
    N2      N    0.36981   0.78000   0.35053   1.000
    N3      N    0.63016   0.22003   0.64949   1.000
    N4      N    0.63016   0.72004   0.64944   1.000
    N5      N    0.40984   0.27932   0.85060   1.000
    N6      N    0.40983   0.77932   0.85060   1.000
    N7      N    0.90983   0.27932   0.85060   1.000
    N8      N    0.90983   0.77932   0.85060   1.000
    N9      N    0.36982   0.28000   0.35053   1.000
    N10     N    0.59014   0.22071   0.14942   1.000
    N11     N    0.09015   0.72072   0.14941   1.000
    N12     N    0.13017   0.72003   0.64947   1.000
    N13     N    0.13017   0.22003   0.64949   1.000
    N14     N    0.09015   0.22071   0.14941   1.000
    N15     N    0.59014   0.72072   0.14941   1.000
    Zr16    Zr   0.67112   0.49973   0.75013   1.000
    O17     O    0.64237   0.38049   0.71520   1.000
    O18     O    0.56889   0.39923   0.77713   1.000
    O19     O    0.76177   0.61895   0.78499   1.000
    O20     O    0.66951   0.60021   0.72302   1.000
    Zr21    Zr   0.17114   0.49973   0.75013   1.000
    O22     O    0.06889   0.39922   0.77713   1.000
    O23     O    0.14238   0.38048   0.71520   1.000
    O24     O    0.26178   0.61894   0.78499   1.000
    O25     O    0.16953   0.60021   0.72303   1.000
    Zr26    Zr   0.82884   0.50030   0.24988   1.000
    O27     O    0.83045   0.39982   0.27698   1.000
    O28     O    0.73820   0.38109   0.21503   1.000
    O29     O    0.93108   0.60081   0.22288   1.000
    O30     O    0.85759   0.61955   0.28482   1.000
    Zr31    Zr   0.32885   0.50031   0.24988   1.000
    O32     O    0.43109   0.60081   0.22288   1.000
    O33     O    0.35761   0.61955   0.28482   1.000
    O34     O    0.33046   0.39983   0.27698   1.000
    O35     O    0.23821   0.38109   0.21501   1.000
    Zr36    Zr   0.82884   0.00030   0.24988   1.000
    O37     O    0.73820   0.88109   0.21503   1.000
    O38     O    0.83045   0.89983   0.27698   1.000
    O39     O    0.93109   0.10081   0.22288   1.000
    O40     O    0.85760   0.11955   0.28482   1.000
    Zr41    Zr   0.32885   0.00031   0.24988   1.000
    O42     O    0.23821   0.88109   0.21501   1.000
    O43     O    0.33046   0.89983   0.27698   1.000
    O44     O    0.35761   0.11955   0.28482   1.000
    O45     O    0.43109   0.10081   0.22288   1.000
    Zr46    Zr   0.67112   0.99973   0.75013   1.000
    O47     O    0.76177   0.11894   0.78499   1.000
    O48     O    0.66952   0.10021   0.72303   1.000
    O49     O    0.56889   0.89923   0.77713   1.000
    O50     O    0.64237   0.88049   0.71519   1.000
    Zr51    Zr   0.17114   0.99973   0.75013   1.000
    O52     O    0.16953   0.10021   0.72303   1.000
    O53     O    0.26178   0.11894   0.78499   1.000
    O54     O    0.14238   0.88049   0.71519   1.000
    O55     O    0.06889   0.89923   0.77713   1.000
    O56     O    0.56940   0.42121   0.63457   1.000
    O57     O    0.64823   0.57874   0.86554   1.000
    O58     O    0.14824   0.57874   0.86554   1.000
    O59     O    0.06941   0.42121   0.63457   1.000
    O60     O    0.93057   0.57882   0.36544   1.000
    O61     O    0.35175   0.42130   0.13447   1.000
    O62     O    0.43058   0.57883   0.36543   1.000
    O63     O    0.43058   0.07882   0.36544   1.000
    O64     O    0.35174   0.92130   0.13448   1.000
    O65     O    0.85173   0.92130   0.13447   1.000
    O66     O    0.93057   0.07882   0.36544   1.000
    O67     O    0.14825   0.07874   0.86554   1.000
    O68     O    0.85173   0.42130   0.13447   1.000
    O69     O    0.56940   0.92121   0.63457   1.000
    O70     O    0.64823   0.07874   0.86554   1.000
    O71     O    0.06941   0.92121   0.63457   1.000
loop_
    _geom_bond_atom_site_label_1
    _geom_bond_atom_site_label_2
    _geom_bond_distance
    _geom_bond_site_symmetry_2
    _ccdc_geom_bond_type
    Zr16   O17       2.41081      .   S
    N3     O17       3.38136      .   S
    Zr16   O18       2.46201      .   S
    N5     O18       3.60429      .   S
    Zr16   O19       2.41528      .   S
    N8     O19       3.38754      .   S
    Zr16   O20       2.45466      .   S
    N4     O20       3.59435      .   S
    Zr21   O22       2.46207      .   S
    N7     O22       3.60440  1_655   S
    Zr21   O23       2.41080      .   S
    N13    O23       3.38131      .   S
    Zr21   O24       2.41530      .   S
    N6     O24       3.38755      .   S
    Zr21   O25       2.45463      .   S
    N12    O25       3.59420      .   S
    Zr26   O27       2.45462      .   S
    N1     O27       3.59405      .   S
    Zr26   O28       2.41530      .   S
    N10    O28       3.38754      .   S
    Zr26   O29       2.46206      .   S
    N11    O29       3.60443  1_455   S
    Zr26   O30       2.41079      .   S
    N0     O30       3.38131      .   S
    Zr31   O32       2.46198      .   S
    N15    O32       3.60427      .   S
    Zr31   O33       2.41077      .   S
    N2     O33       3.38130      .   S
    Zr31   O34       2.45464      .   S
    N9     O34       3.59406      .   S
    Zr31   O35       2.41531      .   S
    N14    O35       3.38758      .   S
    Zr36   O37       2.41527  1_545   S
    N15    O37       3.38751      .   S
    Zr36   O38       2.45453  1_545   S
    N0     O38       3.59403      .   S
    Zr36   O39       2.46205      .   S
    N14    O39       3.60443  1_455   S
    Zr36   O40       2.41072      .   S
    N1     O40       3.38123      .   S
    Zr41   O42       2.41528  1_545   S
    N11    O42       3.38757      .   S
    Zr41   O43       2.45453  1_545   S
    N2     O43       3.59401      .   S
    Zr41   O44       2.41074      .   S
    N9     O44       3.38127      .   S
    Zr41   O45       2.46196      .   S
    N10    O45       3.60426      .   S
    Zr46   O47       2.41525  1_565   S
    N7     O47       3.38753      .   S
    Zr46   O48       2.45453  1_565   S
    N3     O48       3.59400      .   S
    Zr46   O49       2.46200      .   S
    N6     O49       3.60428      .   S
    Zr46   O50       2.41072      .   S
    N4     O50       3.38127      .   S
    Zr51   O52       2.45454  1_565   S
    N13    O52       3.59401      .   S
    Zr51   O53       2.41527  1_565   S
    N5     O53       3.38755      .   S
    Zr51   O54       2.41074      .   S
    N12    O54       3.38126      .   S
    Zr51   O55       2.46204      .   S
    N8     O55       3.60438  1_655   S
    Zr16   O56       2.37797      .   S
    N9     O56       5.25108      .   S
    Zr16   O57       2.37605      .   S
    N15    O57       5.24864  1_554   S
    Zr21   O58       2.37605      .   S
    N11    O58       5.24863  1_554   S
    Zr21   O59       2.37803      .   S
    N1     O59       5.25126  1_655   S
    N12    O60       5.25107  1_455   S
    Zr26   O60       2.37798      .   S
    Zr31   O61       2.37610      .   S
    N5     O61       5.24861  1_556   S
    Zr31   O62       2.37786      .   S
    N4     O62       5.25069      .   S
    Zr41   O63       2.37799      .   S
    N3     O63       5.25110      .   S
    Zr41   O64       2.37602  1_545   S
    N6     O64       5.24859  1_556   S
    Zr36   O65       2.37608  1_545   S
    N8     O65       5.24856  1_556   S
    Zr36   O66       2.37802      .   S
    N13    O66       5.25124  1_455   S
    N14    O67       5.24859  1_554   S
    Zr51   O67       2.37601  1_565   S
    Zr26   O68       2.37610      .   S
    N7     O68       5.24862  1_556   S
    Zr46   O69       2.37798      .   S
    N2     O69       5.25110      .   S
    Zr46   O70       2.37601  1_565   S
    N10    O70       5.24860  1_554   S
    Zr51   O71       2.37804      .   S
    N0     O71       5.25126  1_655   S
