# CIF file generated by openbabel 2.4.90, see http://openbabel.sf.net
data_I
_chemical_name_common ''
_cell_length_a 18.597
_cell_length_b 22.63
_cell_length_c 16.545
_cell_angle_alpha 107.033
_cell_angle_beta 90.063
_cell_angle_gamma 114.039
_space_group_name_H-M_alt 'P 1'
_space_group_name_Hall 'P 1'
loop_
    _symmetry_equiv_pos_as_xyz
    x,y,z
loop_
    _atom_site_label
    _atom_site_type_symbol
    _atom_site_fract_x
    _atom_site_fract_y
    _atom_site_fract_z
    _atom_site_occupancy
    Zr0     Zr   0.07268   0.33590   0.72932   1.000
    Zr1     Zr   0.07267   0.83591   0.72932   1.000
    Zr2     Zr   0.57267   0.33591   0.72932   1.000
    Zr3     Zr   0.57266   0.83591   0.72932   1.000
    Zr4     Zr   0.23741   0.16365   0.77075   1.000
    Zr5     Zr   0.23740   0.66365   0.77075   1.000
    Zr6     Zr   0.73739   0.16365   0.77075   1.000
    Zr7     Zr   0.73739   0.66365   0.77075   1.000
    Zr8     Zr   0.42732   0.16413   0.27070   1.000
    Zr9     Zr   0.42731   0.66413   0.27070   1.000
    Zr10    Zr   0.92731   0.16413   0.27070   1.000
    Zr11    Zr   0.92730   0.66413   0.27070   1.000
    Zr12    Zr   0.26259   0.33638   0.22927   1.000
    Zr13    Zr   0.26259   0.83638   0.22927   1.000
    Zr14    Zr   0.76258   0.33638   0.22927   1.000
    Zr15    Zr   0.76258   0.83638   0.22927   1.000
    Zr16    Zr   0.12467   0.00006   0.74999   1.000
    Zr17    Zr   0.12466   0.50007   0.74999   1.000
    Zr18    Zr   0.62465   0.00007   0.74999   1.000
    Zr19    Zr   0.62465   0.50007   0.74999   1.000
    Zr20    Zr   0.37533   0.99997   0.25000   1.000
    Zr21    Zr   0.37533   0.49998   0.25000   1.000
    Zr22    Zr   0.87532   0.99997   0.25000   1.000
    Zr23    Zr   0.87532   0.49997   0.25000   1.000
    Zr24    Zr   0.17098   0.44181   0.83808   1.000
    Zr25    Zr   0.17098   0.94182   0.83808   1.000
    Zr26    Zr   0.67097   0.44182   0.83808   1.000
    Zr27    Zr   0.67096   0.94182   0.83808   1.000
    Zr28    Zr   0.22981   0.05732   0.66236   1.000
    Zr29    Zr   0.22980   0.55732   0.66236   1.000
    Zr30    Zr   0.72979   0.05732   0.66236   1.000
    Zr31    Zr   0.72979   0.55732   0.66236   1.000
    Zr32    Zr   0.32902   0.05822   0.16194   1.000
    Zr33    Zr   0.32902   0.55823   0.16194   1.000
    Zr34    Zr   0.82901   0.05822   0.16194   1.000
    Zr35    Zr   0.82900   0.55822   0.16194   1.000
    Zr36    Zr   0.27019   0.44271   0.33765   1.000
    Zr37    Zr   0.27018   0.94272   0.33765   1.000
    Zr38    Zr   0.77018   0.44271   0.33766   1.000
    Zr39    Zr   0.77017   0.94272   0.33766   1.000
    Zr40    Zr   0.14676   0.43176   0.78079   1.000
    Zr41    Zr   0.14675   0.93176   0.78079   1.000
    Zr42    Zr   0.64674   0.43176   0.78079   1.000
    Zr43    Zr   0.64674   0.93176   0.78079   1.000
    Zr44    Zr   0.21569   0.06759   0.71964   1.000
    Zr45    Zr   0.21569   0.56759   0.71964   1.000
    Zr46    Zr   0.71568   0.06759   0.71963   1.000
    Zr47    Zr   0.71567   0.56760   0.71963   1.000
    Zr48    Zr   0.35323   0.06828   0.21923   1.000
    Zr49    Zr   0.35323   0.56828   0.21923   1.000
    Zr50    Zr   0.85322   0.06828   0.21923   1.000
    Zr51    Zr   0.85322   0.56828   0.21923   1.000
    Zr52    Zr   0.28431   0.43244   0.28038   1.000
    Zr53    Zr   0.28430   0.93244   0.28038   1.000
    Zr54    Zr   0.78429   0.43244   0.28038   1.000
    Zr55    Zr   0.78429   0.93244   0.28038   1.000
    O56     O    0.84111   0.56325   0.19059   1.000
    O57     O    0.84112   0.06325   0.19059   1.000
    O58     O    0.34113   0.06325   0.19059   1.000
    O59     O    0.34112   0.56326   0.19059   1.000
    O60     O    0.36428   0.03412   0.23461   1.000
    O61     O    0.36428   0.53413   0.23461   1.000
    O62     O    0.86427   0.03412   0.23461   1.000
    O63     O    0.86427   0.53412   0.23461   1.000
    O64     O    0.82980   0.96620   0.26519   1.000
    O65     O    0.82980   0.46620   0.26519   1.000
    O66     O    0.32982   0.46621   0.26519   1.000
    O67     O    0.32982   0.96621   0.26519   1.000
    O68     O    0.27725   0.43758   0.30901   1.000
    O69     O    0.27724   0.93758   0.30901   1.000
    O70     O    0.77723   0.43757   0.30902   1.000
    O71     O    0.77723   0.93758   0.30902   1.000
    O72     O    0.22274   0.56246   0.69100   1.000
    O73     O    0.72273   0.06246   0.69100   1.000
    O74     O    0.72273   0.56246   0.69100   1.000
    O75     O    0.22275   0.06245   0.69100   1.000
    O76     O    0.67016   0.53384   0.73481   1.000
    O77     O    0.67016   0.03383   0.73481   1.000
    O78     O    0.17017   0.53383   0.73481   1.000
    O79     O    0.17018   0.03383   0.73481   1.000
    O80     O    0.13571   0.96591   0.76539   1.000
    O81     O    0.13571   0.46591   0.76539   1.000
    O82     O    0.63569   0.96592   0.76539   1.000
    O83     O    0.63570   0.46592   0.76539   1.000
    O84     O    0.65885   0.93679   0.80944   1.000
    O85     O    0.65886   0.43679   0.80944   1.000
    O86     O    0.15886   0.93679   0.80944   1.000
    O87     O    0.15887   0.43679   0.80944   1.000
    O88     O    0.10972   0.38383   0.75506   1.000
    O89     O    0.10971   0.88384   0.75506   1.000
    O90     O    0.60970   0.38383   0.75506   1.000
    O91     O    0.60970   0.88384   0.75506   1.000
    O92     O    0.22655   0.11562   0.74520   1.000
    O93     O    0.22654   0.61562   0.74520   1.000
    O94     O    0.72653   0.11562   0.74519   1.000
    O95     O    0.72653   0.61563   0.74519   1.000
    O96     O    0.39027   0.11620   0.24497   1.000
    O97     O    0.39027   0.61621   0.24497   1.000
    O98     O    0.89026   0.11620   0.24497   1.000
    O99     O    0.89026   0.61620   0.24497   1.000
    O100    O    0.27345   0.38441   0.25482   1.000
    O101    O    0.27344   0.88441   0.25482   1.000
    O102    O    0.77344   0.38441   0.25482   1.000
    O103    O    0.77343   0.88441   0.25482   1.000
    N104    N    0.86981   0.78000   0.35053   1.000
    O105    O    0.95997   0.80864   0.51225   1.000
    O106    O    0.88635   0.73879   0.31976   1.000
    O107    O    0.97538   0.87674   0.52578   1.000
    O108    O    0.83206   0.79935   0.30408   1.000
    N109    N    0.86981   0.28000   0.35052   1.000
    O110    O    0.95998   0.30864   0.51225   1.000
    O111    O    0.88635   0.23879   0.31975   1.000
    O112    O    0.97538   0.37674   0.52578   1.000
    O113    O    0.83206   0.29934   0.30409   1.000
    N114    N    0.36981   0.78000   0.35053   1.000
    O115    O    0.45997   0.80864   0.51225   1.000
    O116    O    0.38636   0.73880   0.31976   1.000
    O117    O    0.47537   0.87674   0.52578   1.000
    O118    O    0.33207   0.79935   0.30408   1.000
    N119    N    0.63016   0.22003   0.64949   1.000
    O120    O    0.61362   0.26124   0.68026   1.000
    O121    O    0.66791   0.20068   0.69593   1.000
    O122    O    0.52461   0.12329   0.47423   1.000
    O123    O    0.54001   0.19139   0.48777   1.000
    N124    N    0.63016   0.72004   0.64944   1.000
    O125    O    0.61361   0.76125   0.68024   1.000
    O126    O    0.54000   0.69140   0.48774   1.000
    O127    O    0.66790   0.70069   0.69591   1.000
    O128    O    0.52460   0.62330   0.47421   1.000
    N129    N    0.40984   0.27932   0.85060   1.000
    O130    O    0.35242   0.23816   0.81985   1.000
    O131    O    0.46665   0.29872   0.80414   1.000
    O132    O    0.40111   0.37620   0.02591   1.000
    O133    O    0.34816   0.30838   0.01222   1.000
    N134    N    0.40983   0.77932   0.85060   1.000
    O135    O    0.35242   0.73816   0.81985   1.000
    O136    O    0.46665   0.79873   0.80414   1.000
    O137    O    0.40111   0.87620   0.02591   1.000
    O138    O    0.34816   0.80838   0.01223   1.000
    N139    N    0.90983   0.27932   0.85060   1.000
    O140    O    0.85241   0.23815   0.81985   1.000
    O141    O    0.96665   0.29872   0.80414   1.000
    O142    O    0.90110   0.37620   0.02591   1.000
    O143    O    0.84815   0.30838   0.01222   1.000
    N144    N    0.90983   0.77932   0.85060   1.000
    O145    O    0.85241   0.73816   0.81985   1.000
    O146    O    0.96665   0.79873   0.80413   1.000
    O147    O    0.90110   0.87620   0.02590   1.000
    O148    O    0.84815   0.80838   0.01222   1.000
    N149    N    0.36982   0.28000   0.35053   1.000
    O150    O    0.45998   0.30864   0.51225   1.000
    O151    O    0.38636   0.23879   0.31976   1.000
    O152    O    0.47538   0.37674   0.52578   1.000
    O153    O    0.33207   0.29935   0.30409   1.000
    N154    N    0.59014   0.22071   0.14942   1.000
    O155    O    0.65182   0.19165   0.98779   1.000
    O156    O    0.64756   0.26187   0.18017   1.000
    O157    O    0.53333   0.20131   0.19588   1.000
    O158    O    0.59887   0.12383   0.97410   1.000
    N159    N    0.09015   0.72072   0.14941   1.000
    O160    O    0.03333   0.70131   0.19588   1.000
    O161    O    0.15183   0.69165   0.98779   1.000
    O162    O    0.14757   0.76188   0.18015   1.000
    O163    O    0.09888   0.62384   0.97410   1.000
    N164    N    0.13017   0.72003   0.64947   1.000
    O165    O    0.11363   0.76124   0.68025   1.000
    O166    O    0.16792   0.70069   0.69592   1.000
    O167    O    0.04000   0.69140   0.48776   1.000
    O168    O    0.02460   0.62329   0.47422   1.000
    N169    N    0.13017   0.22003   0.64949   1.000
    O170    O    0.16792   0.20068   0.69593   1.000
    O171    O    0.11363   0.26124   0.68026   1.000
    O172    O    0.04001   0.19139   0.48777   1.000
    O173    O    0.02461   0.12329   0.47423   1.000
    N174    N    0.09015   0.22071   0.14941   1.000
    O175    O    0.03334   0.20131   0.19588   1.000
    O176    O    0.15183   0.19165   0.98779   1.000
    O177    O    0.14757   0.26187   0.18015   1.000
    O178    O    0.09888   0.12383   0.97410   1.000
    N179    N    0.59014   0.72072   0.14941   1.000
    O180    O    0.65182   0.69166   0.98779   1.000
    O181    O    0.64756   0.76188   0.18017   1.000
    O182    O    0.53333   0.70131   0.19588   1.000
    O183    O    0.59887   0.62384   0.97410   1.000
loop_
    _geom_bond_atom_site_label_1
    _geom_bond_atom_site_label_2
    _geom_bond_distance
    _geom_bond_site_symmetry_2
    _ccdc_geom_bond_type
    Zr35   O56       0.48533      .   S
    Zr51   O56       0.48533      .   S
    Zr34   O57       0.48532      .   S
    Zr50   O57       0.48532      .   S
    Zr32   O58       0.48532      .   S
    Zr48   O58       0.48532      .   S
    Zr33   O59       0.48532      .   S
    Zr49   O59       0.48532      .   S
    Zr48   O60       0.97413      .   S
    Zr20   O60       0.97413  1_565   S
    Zr49   O61       0.97413      .   S
    Zr21   O61       0.97413      .   S
    Zr50   O62       0.97413      .   S
    Zr22   O62       0.97413  1_565   S
    Zr51   O63       0.97414      .   S
    Zr23   O63       0.97414      .   S
    Zr22   O64       0.97441      .   S
    Zr55   O64       0.97441      .   S
    Zr23   O65       0.97442      .   S
    Zr54   O65       0.97442      .   S
    Zr21   O66       0.97442      .   S
    Zr52   O66       0.97442      .   S
    Zr20   O67       0.97442      .   S
    Zr53   O67       0.97442      .   S
    Zr52   O68       0.48529      .   S
    Zr36   O68       0.48529      .   S
    Zr53   O69       0.48529      .   S
    Zr37   O69       0.48529      .   S
    Zr54   O70       0.48536      .   S
    Zr38   O70       0.48536      .   S
    Zr55   O71       0.48536      .   S
    Zr39   O71       0.48536      .   S
    Zr29   O72       0.48534      .   S
    Zr45   O72       0.48534      .   S
    Zr30   O73       0.48526      .   S
    Zr46   O73       0.48526      .   S
    Zr31   O74       0.48527      .   S
    Zr47   O74       0.48527      .   S
    Zr28   O75       0.48535      .   S
    Zr44   O75       0.48535      .   S
    Zr47   O76       0.97431      .   S
    Zr19   O76       0.97431      .   S
    Zr46   O77       0.97431      .   S
    Zr18   O77       0.97431      .   S
    Zr45   O78       0.97428      .   S
    Zr17   O78       0.97428      .   S
    Zr44   O79       0.97428      .   S
    Zr16   O79       0.97428      .   S
    Zr16   O80       0.97412  1_545   S
    Zr41   O80       0.97412      .   S
    Zr17   O81       0.97426      .   S
    Zr40   O81       0.97426      .   S
    Zr18   O82       0.97412  1_545   S
    Zr43   O82       0.97412      .   S
    Zr19   O83       0.97425      .   S
    Zr42   O83       0.97425      .   S
    Zr43   O84       0.48536      .   S
    Zr27   O84       0.48536      .   S
    Zr42   O85       0.48538      .   S
    Zr26   O85       0.48538      .   S
    Zr41   O86       0.48537      .   S
    Zr25   O86       0.48537      .   S
    Zr40   O87       0.48536      .   S
    Zr24   O87       0.48536      .   S
    Zr40   O88       0.97584      .   S
    Zr0    O88       0.97584      .   S
    Zr41   O89       0.97583      .   S
    Zr1    O89       0.97583      .   S
    Zr42   O90       0.97583      .   S
    Zr2    O90       0.97583      .   S
    Zr43   O91       0.97584      .   S
    Zr3    O91       0.97584      .   S
    Zr44   O92       0.97605      .   S
    Zr4    O92       0.97605      .   S
    Zr45   O93       0.97605      .   S
    Zr5    O93       0.97605      .   S
    Zr46   O94       0.97605      .   S
    Zr6    O94       0.97605      .   S
    Zr47   O95       0.97605      .   S
    Zr7    O95       0.97605      .   S
    Zr48   O96       0.97583      .   S
    Zr8    O96       0.97583      .   S
    Zr49   O97       0.97583      .   S
    Zr9    O97       0.97583      .   S
    Zr50   O98       0.97583      .   S
    Zr10   O98       0.97583      .   S
    Zr51   O99       0.97583      .   S
    Zr11   O99       0.97583      .   S
    Zr52   O100      0.97606      .   S
    Zr12   O100      0.97606      .   S
    Zr53   O101      0.97606      .   S
    Zr13   O101      0.97606      .   S
    Zr54   O102      0.97605      .   S
    Zr14   O102      0.97605      .   S
    Zr55   O103      0.97606      .   S
    Zr15   O103      0.97606      .   S
    N104   O105      2.91208      .   S
    Zr1    O105      3.91195  1_455   S
    N104   O106      1.08602      .   S
    Zr11   O106      2.08325      .   S
    N104   O107      3.13390      .   S
    Zr16   O107      4.10579  1_445   S
    N104   O108      1.31197      .   S
    Zr15   O108      2.32175      .   S
    N109   O110      2.91208      .   S
    Zr0    O110      3.91198  1_455   S
    N109   O111      1.08601      .   S
    Zr10   O111      2.08324      .   S
    N109   O112      3.13393      .   S
    Zr17   O112      4.10575  1_455   S
    N109   O113      1.31187      .   S
    Zr14   O113      2.32183      .   S
    N114   O115      2.91195      .   S
    Zr3    O115      3.91185      .   S
    N114   O116      1.08604      .   S
    Zr9    O116      2.08327      .   S
    N114   O117      3.13384      .   S
    Zr18   O117      4.10569  1_545   S
    N114   O118      1.31195      .   S
    Zr13   O118      2.32173      .   S
    N119   O120      1.08607      .   S
    Zr2    O120      2.08331      .   S
    N119   O121      1.31192      .   S
    Zr6    O121      2.32189      .   S
    N119   O122      3.13388      .   S
    Zr20   O122      4.10588  1_565   S
    N119   O123      2.91190      .   S
    Zr8    O123      3.91182      .   S
    N124   O125      1.08614      .   S
    Zr3    O125      2.08337      .   S
    N124   O126      2.91161      .   S
    Zr9    O126      3.91149      .   S
    N124   O127      1.31217      .   S
    Zr7    O127      2.32212      .   S
    N124   O128      3.13360      .   S
    Zr21   O128      4.10564      .   S
    N129   O130      1.08514      .   S
    Zr4    O130      2.08171      .   S
    N129   O131      1.31216      .   S
    Zr2    O131      2.32188      .   S
    N129   O132      3.13233  1_556   S
    Zr21   O132      4.10314      .   S
    N129   O133      2.91361  1_556   S
    Zr12   O133      3.91550      .   S
    N134   O135      1.08514      .   S
    Zr5    O135      2.08171      .   S
    N134   O136      1.31215      .   S
    Zr3    O136      2.32186      .   S
    N134   O137      3.13229  1_556   S
    Zr20   O137      4.10302      .   S
    N134   O138      2.91380  1_556   S
    Zr13   O138      3.91532      .   S
    N139   O140      1.08516      .   S
    Zr6    O140      2.08173      .   S
    N139   O141      1.31222      .   S
    Zr0    O141      2.32210  1_455   S
    N139   O142      3.13235  1_556   S
    Zr23   O142      4.10310      .   S
    N139   O143      2.91362  1_556   S
    Zr14   O143      3.91551      .   S
    N144   O145      1.08515      .   S
    Zr7    O145      2.08172      .   S
    N144   O146      1.31221      .   S
    Zr1    O146      2.32209  1_455   S
    N144   O147      3.13222  1_556   S
    Zr22   O147      4.10313      .   S
    N144   O148      2.91364  1_556   S
    Zr15   O148      3.91553      .   S
    N149   O150      2.91197      .   S
    Zr2    O150      3.91186      .   S
    N149   O151      1.08604      .   S
    Zr8    O151      2.08327      .   S
    N149   O152      3.13382      .   S
    Zr19   O152      4.10569      .   S
    N149   O153      1.31186      .   S
    Zr12   O153      2.32182      .   S
    N154   O155      2.91378  1_554   S
    Zr6    O155      3.91528      .   S
    N154   O156      1.08515      .   S
    Zr14   O156      2.08170      .   S
    N154   O157      1.31218      .   S
    Zr8    O157      2.32188      .   S
    N154   O158      3.13235  1_554   S
    Zr18   O158      4.10331      .   S
    N159   O160      1.31226      .   S
    Zr11   O160      2.32213  1_655   S
    N159   O161      2.91377  1_554   S
    Zr5    O161      3.91527      .   S
    N159   O162      1.08510      .   S
    Zr13   O162      2.08180      .   S
    N159   O163      3.13236  1_554   S
    Zr17   O163      4.10331      .   S
    N164   O165      1.08607      .   S
    Zr1    O165      2.08330      .   S
    N164   O166      1.31203      .   S
    Zr5    O166      2.32199      .   S
    N164   O167      2.91190      .   S
    Zr11   O167      3.91179  1_655   S
    N164   O168      3.13383      .   S
    Zr23   O168      4.10589  1_655   S
    N169   O170      1.31193      .   S
    Zr4    O170      2.32189      .   S
    N169   O171      1.08604      .   S
    Zr0    O171      2.08327      .   S
    N169   O172      2.91202      .   S
    Zr10   O172      3.91191  1_655   S
    N169   O173      3.13394      .   S
    Zr22   O173      4.10599  1_665   S
    N174   O175      1.31226      .   S
    Zr10   O175      2.32213  1_655   S
    N174   O176      2.91377  1_554   S
    Zr4    O176      3.91527      .   S
    N174   O177      1.08510      .   S
    Zr12   O177      2.08179      .   S
    N174   O178      3.13235  1_554   S
    Zr16   O178      4.10330      .   S
    N179   O180      2.91377  1_554   S
    Zr7    O180      3.91528      .   S
    N179   O181      1.08515      .   S
    Zr15   O181      2.08171      .   S
    N179   O182      1.31218      .   S
    Zr9    O182      2.32189      .   S
    N179   O183      3.13238  1_554   S
    Zr19   O183      4.10328      .   S
