# CIF file generated by openbabel 2.4.90, see http://openbabel.sf.net
data_I
_chemical_name_common ''
_cell_length_a 18.597
_cell_length_b 22.63
_cell_length_c 16.545
_cell_angle_alpha 107.033
_cell_angle_beta 90.063
_cell_angle_gamma 114.039
_space_group_name_H-M_alt 'P 1'
_space_group_name_Hall 'P 1'
loop_
    _symmetry_equiv_pos_as_xyz
    x,y,z
loop_
    _atom_site_label
    _atom_site_type_symbol
    _atom_site_fract_x
    _atom_site_fract_y
    _atom_site_fract_z
    _atom_site_occupancy
    C0      C    0.07268   0.33590   0.72932   1.000
    C1      C    0.07267   0.83591   0.72932   1.000
    C2      C    0.57267   0.33591   0.72932   1.000
    C3      C    0.57266   0.83591   0.72932   1.000
    C4      C    0.23741   0.16365   0.77075   1.000
    C5      C    0.23740   0.66365   0.77075   1.000
    C6      C    0.73739   0.16365   0.77075   1.000
    C7      C    0.73739   0.66365   0.77075   1.000
    C8      C    0.42732   0.16413   0.27070   1.000
    C9      C    0.42731   0.66413   0.27070   1.000
    C10     C    0.92731   0.16413   0.27070   1.000
    C11     C    0.92730   0.66413   0.27070   1.000
    C12     C    0.26259   0.33638   0.22927   1.000
    C13     C    0.26259   0.83638   0.22927   1.000
    C14     C    0.76258   0.33638   0.22927   1.000
    C15     C    0.76258   0.83638   0.22927   1.000
    C16     C    0.12467   0.00006   0.74999   1.000
    C17     C    0.12466   0.50007   0.74999   1.000
    C18     C    0.62465   0.00007   0.74999   1.000
    C19     C    0.62465   0.50007   0.74999   1.000
    C20     C    0.37533   0.99997   0.25000   1.000
    C21     C    0.37533   0.49998   0.25000   1.000
    C22     C    0.87532   0.99997   0.25000   1.000
    C23     C    0.87532   0.49997   0.25000   1.000
    C24     C    0.46734   0.26745   0.46953   1.000
    C25     C    0.46733   0.76745   0.46953   1.000
    C26     C    0.96733   0.26744   0.46950   1.000
    C27     C    0.96732   0.76745   0.46953   1.000
    C28     C    0.36442   0.42964   0.41902   1.000
    C29     C    0.36441   0.92964   0.41903   1.000
    C30     C    0.86440   0.42964   0.41903   1.000
    C31     C    0.86440   0.92964   0.41900   1.000
    C32     C    0.44898   0.45962   0.55530   1.000
    C33     C    0.44897   0.95962   0.55530   1.000
    C34     C    0.94896   0.45961   0.55530   1.000
    C35     C    0.94896   0.95962   0.55530   1.000
    C36     C    0.38530   0.19290   0.10530   1.000
    C37     C    0.38530   0.69290   0.10533   1.000
    C38     C    0.88529   0.19289   0.10530   1.000
    C39     C    0.88528   0.69290   0.10534   1.000
    C40     C    0.27925   0.21708   0.12782   1.000
    C41     C    0.27925   0.71709   0.12782   1.000
    C42     C    0.77924   0.21708   0.12782   1.000
    C43     C    0.77923   0.71709   0.12782   1.000
    C44     C    0.18617   0.09808   0.11148   1.000
    C45     C    0.18616   0.59808   0.11148   1.000
    C46     C    0.68616   0.09808   0.11148   1.000
    C47     C    0.68615   0.59808   0.11148   1.000
    C48     C    0.23142   0.10413   0.21130   1.000
    C49     C    0.23142   0.60413   0.21130   1.000
    C50     C    0.73141   0.10413   0.21130   1.000
    C51     C    0.73140   0.60413   0.21130   1.000
    C52     C    0.17727   0.15304   0.20874   1.000
    C53     C    0.17726   0.65304   0.20874   1.000
    C54     C    0.67726   0.15303   0.20874   1.000
    C55     C    0.67725   0.65304   0.20874   1.000
    C56     C    0.17098   0.44181   0.83808   1.000
    C57     C    0.17098   0.94182   0.83808   1.000
    C58     C    0.67097   0.44182   0.83808   1.000
    C59     C    0.67096   0.94182   0.83808   1.000
    C60     C    0.19974   0.23325   0.03030   1.000
    C61     C    0.19973   0.73325   0.03030   1.000
    C62     C    0.69972   0.23325   0.03030   1.000
    C63     C    0.69972   0.73325   0.03030   1.000
    C64     C    0.43612   0.07112   0.08099   1.000
    C65     C    0.43612   0.57113   0.08099   1.000
    C66     C    0.93612   0.07112   0.08100   1.000
    C67     C    0.93611   0.57113   0.08100   1.000
    C68     C    0.49055   0.04118   0.94462   1.000
    C69     C    0.49054   0.54119   0.94462   1.000
    C70     C    0.99054   0.04118   0.94462   1.000
    C71     C    0.99053   0.54118   0.94462   1.000
    C72     C    0.19311   0.30791   0.39404   1.000
    C73     C    0.19310   0.80792   0.39404   1.000
    C74     C    0.69310   0.30791   0.39404   1.000
    C75     C    0.69309   0.80791   0.39404   1.000
    C76     C    0.06291   0.28373   0.37237   1.000
    C77     C    0.06290   0.78373   0.37237   1.000
    C78     C    0.56289   0.28372   0.37237   1.000
    C79     C    0.56289   0.78373   0.37237   1.000
    C80     C    0.08767   0.40269   0.38873   1.000
    C81     C    0.08766   0.90269   0.38873   1.000
    C82     C    0.58766   0.40269   0.38874   1.000
    C83     C    0.58765   0.90269   0.38870   1.000
    C84     C    0.12638   0.39660   0.28872   1.000
    C85     C    0.12637   0.89660   0.28872   1.000
    C86     C    0.62637   0.39660   0.28870   1.000
    C87     C    0.62636   0.89661   0.28872   1.000
    C88     C    0.02383   0.34773   0.29164   1.000
    C89     C    0.02382   0.84773   0.29164   1.000
    C90     C    0.52382   0.34773   0.29165   1.000
    C91     C    0.52381   0.84774   0.29165   1.000
    C92     C    0.22981   0.05732   0.66236   1.000
    C93     C    0.22980   0.55732   0.66236   1.000
    C94     C    0.72979   0.05732   0.66236   1.000
    C95     C    0.72979   0.55732   0.66236   1.000
    C96     C    0.03266   0.23258   0.53050   1.000
    C97     C    0.03265   0.73259   0.53000   1.000
    C98     C    0.53265   0.23259   0.53049   1.000
    C99     C    0.53264   0.73259   0.53050   1.000
    C100    C    0.13558   0.07039   0.58099   1.000
    C101    C    0.13557   0.57039   0.58100   1.000
    C102    C    0.63556   0.07039   0.58100   1.000
    C103    C    0.63556   0.57040   0.58000   1.000
    C104    C    0.05102   0.04041   0.44472   1.000
    C105    C    0.05101   0.54042   0.44472   1.000
    C106    C    0.55101   0.04041   0.44472   1.000
    C107    C    0.55100   0.54042   0.44472   1.000
    C108    C    0.11470   0.30714   0.89460   1.000
    C109    C    0.11469   0.80715   0.89468   1.000
    C110    C    0.61469   0.30715   0.89468   1.000
    C111    C    0.61468   0.80715   0.89468   1.000
    C112    C    0.22075   0.28295   0.87220   1.000
    C113    C    0.22074   0.78295   0.87220   1.000
    C114    C    0.72073   0.28295   0.87220   1.000
    C115    C    0.72073   0.78296   0.87220   1.000
    C116    C    0.31383   0.40195   0.88854   1.000
    C117    C    0.31383   0.90195   0.88853   1.000
    C118    C    0.81383   0.40195   0.88853   1.000
    C119    C    0.81382   0.90196   0.88854   1.000
    C120    C    0.26858   0.39590   0.78871   1.000
    C121    C    0.26857   0.89590   0.78871   1.000
    C122    C    0.76857   0.39590   0.78871   1.000
    C123    C    0.76856   0.89591   0.78871   1.000
    C124    C    0.32273   0.34699   0.79127   1.000
    C125    C    0.32273   0.84699   0.79127   1.000
    C126    C    0.82272   0.34699   0.79127   1.000
    C127    C    0.82271   0.84700   0.79127   1.000
    C128    C    0.32902   0.05822   0.16194   1.000
    C129    C    0.32902   0.55823   0.16194   1.000
    C130    C    0.82901   0.05822   0.16194   1.000
    C131    C    0.82900   0.55822   0.16194   1.000
    C132    C    0.30026   0.26679   0.96972   1.000
    C133    C    0.30026   0.76679   0.96972   1.000
    C134    C    0.80025   0.26678   0.96972   1.000
    C135    C    0.80024   0.76679   0.96972   1.000
    C136    C    0.06387   0.42890   0.91903   1.000
    C137    C    0.06387   0.92891   0.91900   1.000
    C138    C    0.56386   0.42891   0.91902   1.000
    C139    C    0.56385   0.92891   0.91902   1.000
    C140    C    0.00945   0.45885   0.05540   1.000
    C141    C    0.00944   0.95885   0.05540   1.000
    C142    C    0.50943   0.45885   0.05540   1.000
    C143    C    0.50943   0.95886   0.05540   1.000
    C144    C    0.30689   0.19212   0.60598   1.000
    C145    C    0.30688   0.69212   0.60598   1.000
    C146    C    0.80688   0.19212   0.60598   1.000
    C147    C    0.80687   0.69213   0.60598   1.000
    C148    C    0.43709   0.21630   0.62765   1.000
    C149    C    0.43708   0.71631   0.62765   1.000
    C150    C    0.93708   0.21630   0.62765   1.000
    C151    C    0.93707   0.71631   0.62765   1.000
    C152    C    0.41233   0.09734   0.61129   1.000
    C153    C    0.41232   0.59735   0.61129   1.000
    C154    C    0.91231   0.09734   0.61128   1.000
    C155    C    0.91231   0.59735   0.61128   1.000
    C156    C    0.37362   0.10343   0.71130   1.000
    C157    C    0.37361   0.60343   0.71130   1.000
    C158    C    0.87360   0.10343   0.71129   1.000
    C159    C    0.87360   0.60343   0.71129   1.000
    C160    C    0.47617   0.15230   0.70838   1.000
    C161    C    0.47616   0.65230   0.70838   1.000
    C162    C    0.97615   0.15229   0.70837   1.000
    C163    C    0.97615   0.65230   0.70837   1.000
    C164    C    0.27019   0.44271   0.33765   1.000
    C165    C    0.27018   0.94272   0.33765   1.000
    C166    C    0.77018   0.44271   0.33766   1.000
    C167    C    0.77017   0.94272   0.33766   1.000
    C168    C    0.44531   0.30255   0.45858   1.000
    C169    C    0.44530   0.80256   0.45858   1.000
    C170    C    0.94529   0.30255   0.45858   1.000
    C171    C    0.94529   0.80256   0.45858   1.000
    C172    C    0.01247   0.38495   0.60336   1.000
    C173    C    0.01246   0.88495   0.60336   1.000
    C174    C    0.51245   0.38495   0.60336   1.000
    C175    C    0.51245   0.88496   0.60336   1.000
    C176    C    0.46202   0.36532   0.52098   1.000
    C177    C    0.46202   0.86532   0.52098   1.000
    C178    C    0.96201   0.36532   0.52098   1.000
    C179    C    0.96200   0.86532   0.52098   1.000
    C180    C    0.38585   0.39416   0.43015   1.000
    C181    C    0.38584   0.89416   0.43015   1.000
    C182    C    0.88584   0.39416   0.43015   1.000
    C183    C    0.88584   0.89416   0.43015   1.000
    C184    C    0.40036   0.28682   0.38147   1.000
    C185    C    0.40035   0.78683   0.38147   1.000
    C186    C    0.90035   0.28682   0.38140   1.000
    C187    C    0.90034   0.78682   0.38147   1.000
    C188    C    0.33409   0.24187   0.25340   1.000
    C189    C    0.33409   0.74187   0.25340   1.000
    C190    C    0.83408   0.24186   0.25340   1.000
    C191    C    0.83407   0.74187   0.25340   1.000
    C192    C    0.36883   0.33120   0.36766   1.000
    C193    C    0.36882   0.83120   0.36766   1.000
    C194    C    0.86882   0.33119   0.36766   1.000
    C195    C    0.86881   0.83120   0.36766   1.000
    C196    C    0.43310   0.41072   0.50578   1.000
    C197    C    0.43309   0.91072   0.50579   1.000
    C198    C    0.93308   0.41071   0.50579   1.000
    C199    C    0.93308   0.91072   0.50578   1.000
    C200    C    0.29329   0.19052   0.16723   1.000
    C201    C    0.29329   0.69053   0.16723   1.000
    C202    C    0.79328   0.19052   0.16723   1.000
    C203    C    0.79327   0.69053   0.16723   1.000
    C204    C    0.21722   0.13263   0.17521   1.000
    C205    C    0.21721   0.63263   0.17521   1.000
    C206    C    0.71721   0.13263   0.17521   1.000
    C207    C    0.71720   0.63263   0.17521   1.000
    C208    C    0.14291   0.19816   0.04126   1.000
    C209    C    0.14290   0.69816   0.04126   1.000
    C210    C    0.64290   0.19816   0.04126   1.000
    C211    C    0.64289   0.69817   0.04126   1.000
    C212    C    0.12800   0.11561   0.89658   1.000
    C213    C    0.12799   0.61562   0.89658   1.000
    C214    C    0.62799   0.11561   0.89658   1.000
    C215    C    0.62799   0.61562   0.89658   1.000
    C216    C    0.09724   0.13541   0.97890   1.000
    C217    C    0.09723   0.63541   0.97890   1.000
    C218    C    0.59722   0.13541   0.97893   1.000
    C219    C    0.59722   0.63541   0.97893   1.000
    C220    C    0.49270   0.10658   0.06982   1.000
    C221    C    0.49269   0.60659   0.06982   1.000
    C222    C    0.99269   0.10658   0.06982   1.000
    C223    C    0.99268   0.60659   0.06982   1.000
    C224    C    0.11376   0.21390   0.11841   1.000
    C225    C    0.11375   0.71390   0.11841   1.000
    C226    C    0.61375   0.21390   0.11841   1.000
    C227    C    0.61374   0.71390   0.11841   1.000
    C228    C    0.09243   0.25884   0.24653   1.000
    C229    C    0.09243   0.75885   0.24653   1.000
    C230    C    0.59242   0.25884   0.24653   1.000
    C231    C    0.59242   0.75885   0.24653   1.000
    C232    C    0.03831   0.16953   0.13231   1.000
    C233    C    0.03830   0.66953   0.13231   1.000
    C234    C    0.53830   0.16952   0.13231   1.000
    C235    C    0.53829   0.66953   0.13231   1.000
    C236    C    0.02332   0.09006   0.99416   1.000
    C237    C    0.02331   0.59006   0.99416   1.000
    C238    C    0.52330   0.09006   0.99416   1.000
    C239    C    0.52330   0.59006   0.99416   1.000
    C240    C    0.10295   0.31022   0.33273   1.000
    C241    C    0.10294   0.81022   0.33273   1.000
    C242    C    0.60294   0.31022   0.33274   1.000
    C243    C    0.60293   0.81022   0.33274   1.000
    C244    C    0.08415   0.36812   0.32495   1.000
    C245    C    0.08415   0.86812   0.32495   1.000
    C246    C    0.58414   0.36811   0.32495   1.000
    C247    C    0.58414   0.86812   0.32495   1.000
    C248    C    0.05469   0.19748   0.54144   1.000
    C249    C    0.05469   0.69748   0.54144   1.000
    C250    C    0.55468   0.19748   0.54144   1.000
    C251    C    0.55467   0.69748   0.54144   1.000
    C252    C    0.48751   0.11508   0.39667   1.000
    C253    C    0.48752   0.61508   0.39660   1.000
    C254    C    0.98751   0.11508   0.39666   1.000
    C255    C    0.98750   0.61508   0.39667   1.000
    C256    C    0.03797   0.13471   0.47904   1.000
    C257    C    0.03796   0.63471   0.47904   1.000
    C258    C    0.53795   0.13471   0.47905   1.000
    C259    C    0.53796   0.63472   0.47904   1.000
    C260    C    0.11415   0.10587   0.56987   1.000
    C261    C    0.11414   0.60587   0.56987   1.000
    C262    C    0.61413   0.10587   0.56987   1.000
    C263    C    0.61413   0.60588   0.56987   1.000
    C264    C    0.09964   0.21321   0.61856   1.000
    C265    C    0.09963   0.71321   0.61856   1.000
    C266    C    0.59962   0.21321   0.61856   1.000
    C267    C    0.59962   0.71322   0.61856   1.000
    C268    C    0.16591   0.25816   0.74662   1.000
    C269    C    0.16590   0.75817   0.74662   1.000
    C270    C    0.66590   0.25817   0.74662   1.000
    C271    C    0.66589   0.75817   0.74662   1.000
    C272    C    0.13117   0.16883   0.63236   1.000
    C273    C    0.13116   0.66884   0.63236   1.000
    C274    C    0.63116   0.16884   0.63236   1.000
    C275    C    0.63115   0.66884   0.63230   1.000
    C276    C    0.06690   0.08932   0.49424   1.000
    C277    C    0.06689   0.58932   0.49424   1.000
    C278    C    0.56689   0.08932   0.49420   1.000
    C279    C    0.56688   0.58932   0.49424   1.000
    C280    C    0.20671   0.30951   0.83279   1.000
    C281    C    0.20670   0.80951   0.83279   1.000
    C282    C    0.70669   0.30951   0.83270   1.000
    C283    C    0.70669   0.80952   0.83279   1.000
    C284    C    0.28278   0.36740   0.82480   1.000
    C285    C    0.28278   0.86740   0.82480   1.000
    C286    C    0.78277   0.36740   0.82480   1.000
    C287    C    0.78277   0.86741   0.82480   1.000
    C288    C    0.35709   0.30187   0.95876   1.000
    C289    C    0.35708   0.80187   0.95876   1.000
    C290    C    0.85707   0.30187   0.95876   1.000
    C291    C    0.85707   0.80187   0.95876   1.000
    C292    C    0.37200   0.38442   0.10344   1.000
    C293    C    0.37199   0.88443   0.10344   1.000
    C294    C    0.87198   0.38442   0.10344   1.000
    C295    C    0.87198   0.88443   0.10344   1.000
    C296    C    0.40276   0.36463   0.02109   1.000
    C297    C    0.40276   0.86463   0.02100   1.000
    C298    C    0.90275   0.36462   0.02109   1.000
    C299    C    0.90275   0.86463   0.02109   1.000
    C300    C    0.00730   0.39344   0.93020   1.000
    C301    C    0.00730   0.89345   0.93020   1.000
    C302    C    0.50729   0.39345   0.93020   1.000
    C303    C    0.50728   0.89345   0.93020   1.000
    C304    C    0.38624   0.28613   0.88161   1.000
    C305    C    0.38623   0.78614   0.88161   1.000
    C306    C    0.88622   0.28613   0.88161   1.000
    C307    C    0.88622   0.78614   0.88161   1.000
    C308    C    0.40757   0.24119   0.75349   1.000
    C309    C    0.40756   0.74119   0.75349   1.000
    C310    C    0.90755   0.24119   0.75349   1.000
    C311    C    0.90755   0.74119   0.75349   1.000
    C312    C    0.46169   0.33051   0.86771   1.000
    C313    C    0.46168   0.83051   0.86771   1.000
    C314    C    0.96167   0.33050   0.86771   1.000
    C315    C    0.96167   0.83051   0.86771   1.000
    C316    C    0.47668   0.40998   0.00586   1.000
    C317    C    0.47667   0.90998   0.00586   1.000
    C318    C    0.97667   0.40997   0.00586   1.000
    C319    C    0.97666   0.90998   0.00586   1.000
    C320    C    0.39705   0.18981   0.66729   1.000
    C321    C    0.39704   0.68981   0.66729   1.000
    C322    C    0.89703   0.18981   0.66729   1.000
    C323    C    0.89703   0.68982   0.66729   1.000
    C324    C    0.41585   0.13191   0.67507   1.000
    C325    C    0.41584   0.63192   0.67507   1.000
    C326    C    0.91583   0.13191   0.67507   1.000
    C327    C    0.91582   0.63192   0.67507   1.000
    C328    C    0.37850   0.23103   0.30727   1.000
    C329    C    0.37849   0.73104   0.30727   1.000
    C330    C    0.87848   0.23103   0.30727   1.000
    C331    C    0.87848   0.73104   0.30727   1.000
    C332    C    0.32607   0.30101   0.28603   1.000
    C333    C    0.32606   0.80101   0.28600   1.000
    C334    C    0.82605   0.30100   0.28603   1.000
    C335    C    0.82605   0.80101   0.28600   1.000
    C336    C    0.14739   0.26969   0.19250   1.000
    C337    C    0.14738   0.76969   0.19250   1.000
    C338    C    0.64738   0.26969   0.19259   1.000
    C339    C    0.64737   0.76970   0.19259   1.000
    C340    C    0.02573   0.19968   0.21400   1.000
    C341    C    0.02572   0.69968   0.21400   1.000
    C342    C    0.52571   0.19968   0.21400   1.000
    C343    C    0.52571   0.69969   0.21400   1.000
    C344    C    0.12150   0.26899   0.69275   1.000
    C345    C    0.12150   0.76900   0.69275   1.000
    C346    C    0.62149   0.26900   0.69275   1.000
    C347    C    0.62148   0.76900   0.69275   1.000
    C348    C    0.17393   0.19902   0.71399   1.000
    C349    C    0.17393   0.69903   0.71399   1.000
    C350    C    0.67392   0.19903   0.71399   1.000
    C351    C    0.67391   0.69903   0.71399   1.000
    C352    C    0.35261   0.23034   0.80744   1.000
    C353    C    0.35260   0.73034   0.80744   1.000
    C354    C    0.85259   0.23034   0.80744   1.000
    C355    C    0.85259   0.73035   0.80744   1.000
    C356    C    0.47427   0.30035   0.78602   1.000
    C357    C    0.47427   0.80035   0.78602   1.000
    C358    C    0.97426   0.30035   0.78602   1.000
    C359    C    0.97426   0.80035   0.78602   1.000
    C360    C    0.03722   0.44690   0.65207   1.000
    C361    C    0.03722   0.94690   0.65206   1.000
    C362    C    0.53721   0.44690   0.65206   1.000
    C363    C    0.53721   0.94690   0.65207   1.000
    C364    C    0.14676   0.43176   0.78079   1.000
    C365    C    0.14675   0.93176   0.78079   1.000
    C366    C    0.64674   0.43176   0.78079   1.000
    C367    C    0.64674   0.93176   0.78079   1.000
    C368    C    0.02761   0.33865   0.61863   1.000
    C369    C    0.02761   0.83865   0.61863   1.000
    C370    C    0.52760   0.33865   0.61863   1.000
    C371    C    0.52759   0.83865   0.61863   1.000
    C372    C    0.34381   0.15976   0.12580   1.000
    C373    C    0.34381   0.65976   0.12580   1.000
    C374    C    0.84380   0.15975   0.12580   1.000
    C375    C    0.84379   0.65975   0.12581   1.000
    C376    C    0.09055   0.05384   0.84758   1.000
    C377    C    0.09055   0.55384   0.84758   1.000
    C378    C    0.59054   0.05384   0.84758   1.000
    C379    C    0.59053   0.55385   0.84757   1.000
    C380    C    0.21569   0.06759   0.71964   1.000
    C381    C    0.21569   0.56759   0.71964   1.000
    C382    C    0.71568   0.06759   0.71963   1.000
    C383    C    0.71567   0.56760   0.71963   1.000
    C384    C    0.18962   0.16153   0.88157   1.000
    C385    C    0.18961   0.66153   0.88157   1.000
    C386    C    0.68961   0.16153   0.88157   1.000
    C387    C    0.68960   0.66154   0.88157   1.000
    C388    C    0.18422   0.34103   0.37372   1.000
    C389    C    0.18421   0.84103   0.37372   1.000
    C390    C    0.68421   0.34103   0.37372   1.000
    C391    C    0.68420   0.84103   0.37372   1.000
    C392    C    0.46277   0.05313   0.34795   1.000
    C393    C    0.46276   0.55314   0.34796   1.000
    C394    C    0.96276   0.05313   0.34796   1.000
    C395    C    0.96275   0.55313   0.34796   1.000
    C396    C    0.35323   0.06828   0.21923   1.000
    C397    C    0.35323   0.56828   0.21923   1.000
    C398    C    0.85322   0.06828   0.21923   1.000
    C399    C    0.85322   0.56828   0.21923   1.000
    C400    C    0.47239   0.16138   0.38139   1.000
    C401    C    0.47238   0.66139   0.38139   1.000
    C402    C    0.97238   0.16138   0.38139   1.000
    C403    C    0.97237   0.66138   0.38139   1.000
    C404    C    0.15619   0.34028   0.87421   1.000
    C405    C    0.15618   0.84029   0.87421   1.000
    C406    C    0.65618   0.34029   0.87421   1.000
    C407    C    0.65617   0.84029   0.87421   1.000
    C408    C    0.40943   0.44620   0.15243   1.000
    C409    C    0.40943   0.94620   0.15243   1.000
    C410    C    0.90942   0.44619   0.15244   1.000
    C411    C    0.90942   0.94620   0.15240   1.000
    C412    C    0.28431   0.43244   0.28038   1.000
    C413    C    0.28430   0.93244   0.28038   1.000
    C414    C    0.78429   0.43244   0.28038   1.000
    C415    C    0.78429   0.93244   0.28038   1.000
    C416    C    0.31039   0.33851   0.11840   1.000
    C417    C    0.31038   0.83851   0.11845   1.000
    C418    C    0.81037   0.33850   0.11840   1.000
    C419    C    0.81037   0.83851   0.11840   1.000
    C420    C    0.31578   0.15900   0.62630   1.000
    C421    C    0.31577   0.65900   0.62630   1.000
    C422    C    0.81576   0.15900   0.62630   1.000
    C423    C    0.81576   0.65901   0.62630   1.000
    O424    O    0.43972   0.38730   0.01347   1.000
    O425    O    0.49306   0.43442   0.03063   1.000
    O426    O    0.49198   0.40171   0.96803   1.000
    O427    O    0.43971   0.88730   0.01343   1.000
    O428    O    0.49305   0.93442   0.03063   1.000
    O429    O    0.49198   0.90172   0.96803   1.000
    O430    O    0.93971   0.38730   0.01347   1.000
    O431    O    0.99306   0.43441   0.03063   1.000
    O432    O    0.99198   0.40171   0.96803   1.000
    O433    O    0.93970   0.88730   0.01347   1.000
    O434    O    0.99305   0.93442   0.03063   1.000
    O435    O    0.99198   0.90171   0.96803   1.000
    O436    O    0.38737   0.87453   0.06222   1.000
    O437    O    0.37992   0.83325   0.98988   1.000
    O438    O    0.88736   0.87453   0.06227   1.000
    O439    O    0.87991   0.83325   0.98992   1.000
    O440    O    0.88736   0.37452   0.06227   1.000
    O441    O    0.87991   0.33325   0.98992   1.000
    O442    O    0.38738   0.37453   0.06227   1.000
    O443    O    0.37992   0.33325   0.98992   1.000
    O444    O    0.17132   0.21571   0.03578   1.000
    O445    O    0.17132   0.71571   0.03578   1.000
    O446    O    0.67131   0.21570   0.03578   1.000
    O447    O    0.67131   0.71571   0.03578   1.000
    O448    O    0.12834   0.20603   0.07984   1.000
    O449    O    0.12007   0.16679   0.01008   1.000
    O450    O    0.62832   0.70604   0.07984   1.000
    O451    O    0.62006   0.66679   0.01009   1.000
    O452    O    0.62832   0.20603   0.07984   1.000
    O453    O    0.62006   0.16679   0.01009   1.000
    O454    O    0.12833   0.70603   0.07984   1.000
    O455    O    0.12007   0.66679   0.01008   1.000
    O456    O    0.46441   0.08885   0.07540   1.000
    O457    O    0.51550   0.13805   0.10107   1.000
    O458    O    0.50800   0.09832   0.03199   1.000
    O459    O    0.46441   0.58886   0.07540   1.000
    O460    O    0.51549   0.63806   0.10107   1.000
    O461    O    0.50800   0.59833   0.03199   1.000
    O462    O    0.96440   0.08885   0.07541   1.000
    O463    O    0.01550   0.13805   0.10107   1.000
    O464    O    0.00800   0.09832   0.03199   1.000
    O465    O    0.96439   0.58886   0.07541   1.000
    O466    O    0.01549   0.63806   0.10107   1.000
    O467    O    0.00800   0.59832   0.03199   1.000
    O468    O    0.34118   0.86147   0.11094   1.000
    O469    O    0.39071   0.91531   0.12794   1.000
    O470    O    0.84118   0.36146   0.11092   1.000
    O471    O    0.89070   0.41531   0.12794   1.000
    O472    O    0.84117   0.86147   0.11092   1.000
    O473    O    0.89070   0.91531   0.12792   1.000
    O474    O    0.34119   0.36146   0.11092   1.000
    O475    O    0.39071   0.41531   0.12794   1.000
    O476    O    0.36456   0.17633   0.11555   1.000
    O477    O    0.86455   0.17632   0.11555   1.000
    O478    O    0.36455   0.67633   0.11556   1.000
    O479    O    0.86454   0.67633   0.11558   1.000
    O480    O    0.70167   0.61536   0.14335   1.000
    O481    O    0.70168   0.11535   0.14335   1.000
    O482    O    0.20169   0.11535   0.14335   1.000
    O483    O    0.20169   0.61536   0.14335   1.000
    O484    O    0.28649   0.33744   0.17383   1.000
    O485    O    0.78647   0.83744   0.17383   1.000
    O486    O    0.78648   0.33744   0.17383   1.000
    O487    O    0.07603   0.69171   0.12536   1.000
    O488    O    0.13057   0.74180   0.15545   1.000
    O489    O    0.57602   0.69172   0.12536   1.000
    O490    O    0.63056   0.74180   0.15550   1.000
    O491    O    0.57602   0.19171   0.12536   1.000
    O492    O    0.63056   0.24179   0.15550   1.000
    O493    O    0.07604   0.19171   0.12536   1.000
    O494    O    0.13058   0.24180   0.15545   1.000
    O495    O    0.28648   0.83745   0.17386   1.000
    O496    O    0.81854   0.17514   0.14652   1.000
    O497    O    0.31855   0.67514   0.14652   1.000
    O498    O    0.31855   0.17514   0.14652   1.000
    O499    O    0.81853   0.67514   0.14652   1.000
    O500    O    0.78626   0.20380   0.14752   1.000
    O501    O    0.28627   0.70381   0.14752   1.000
    O502    O    0.28627   0.20380   0.14752   1.000
    O503    O    0.78625   0.70381   0.14752   1.000
    O504    O    0.03202   0.18460   0.17315   1.000
    O505    O    0.03201   0.68461   0.17315   1.000
    O506    O    0.53200   0.18460   0.17315   1.000
    O507    O    0.53200   0.68461   0.17315   1.000
    O508    O    0.89237   0.97308   0.20120   1.000
    O509    O    0.39238   0.97309   0.20122   1.000
    O510    O    0.39238   0.47309   0.20122   1.000
    O511    O    0.89237   0.47308   0.20122   1.000
    O512    O    0.84111   0.56325   0.19059   1.000
    O513    O    0.84112   0.06325   0.19059   1.000
    O514    O    0.34113   0.06325   0.19059   1.000
    O515    O    0.34112   0.56326   0.19059   1.000
    O516    O    0.25525   0.16158   0.17122   1.000
    O517    O    0.31369   0.21620   0.21032   1.000
    O518    O    0.25525   0.66158   0.17122   1.000
    O519    O    0.31369   0.71620   0.21032   1.000
    O520    O    0.75524   0.16157   0.17122   1.000
    O521    O    0.81368   0.21619   0.21032   1.000
    O522    O    0.75524   0.66158   0.17122   1.000
    O523    O    0.81367   0.71620   0.21032   1.000
    O524    O    0.69722   0.64284   0.19198   1.000
    O525    O    0.72430   0.61838   0.19326   1.000
    O526    O    0.19724   0.14283   0.19198   1.000
    O527    O    0.22432   0.11838   0.19326   1.000
    O528    O    0.19724   0.64284   0.19198   1.000
    O529    O    0.22432   0.61838   0.19326   1.000
    O530    O    0.69723   0.14283   0.19198   1.000
    O531    O    0.72431   0.11838   0.19326   1.000
    O532    O    0.20499   0.80304   0.21088   1.000
    O533    O    0.11991   0.76427   0.21951   1.000
    O534    O    0.20499   0.30304   0.21088   1.000
    O535    O    0.11991   0.26427   0.21951   1.000
    O536    O    0.70498   0.30303   0.21093   1.000
    O537    O    0.61990   0.26427   0.21956   1.000
    O538    O    0.70498   0.80304   0.21093   1.000
    O539    O    0.61989   0.76427   0.21956   1.000
    O540    O    0.05908   0.22926   0.23026   1.000
    O541    O    0.97652   0.18190   0.24235   1.000
    O542    O    0.55907   0.22926   0.23026   1.000
    O543    O    0.47651   0.18190   0.24235   1.000
    O544    O    0.55906   0.72927   0.23026   1.000
    O545    O    0.47651   0.68191   0.24235   1.000
    O546    O    0.05907   0.72927   0.23026   1.000
    O547    O    0.97651   0.68191   0.24235   1.000
    O548    O    0.36428   0.03412   0.23461   1.000
    O549    O    0.36428   0.53413   0.23461   1.000
    O550    O    0.86427   0.03412   0.23461   1.000
    O551    O    0.86427   0.53412   0.23461   1.000
    O552    O    0.29432   0.81870   0.25764   1.000
    O553    O    0.79432   0.31869   0.25765   1.000
    O554    O    0.79431   0.81870   0.25764   1.000
    O555    O    0.29433   0.31869   0.25765   1.000
    O556    O    0.09769   0.28453   0.28963   1.000
    O557    O    0.09769   0.78453   0.28963   1.000
    O558    O    0.59768   0.28453   0.28964   1.000
    O559    O    0.59768   0.78454   0.28964   1.000
    O560    O    0.82980   0.96620   0.26519   1.000
    O561    O    0.91904   0.02655   0.29898   1.000
    O562    O    0.82980   0.46620   0.26519   1.000
    O563    O    0.91903   0.52655   0.29898   1.000
    O564    O    0.32982   0.46621   0.26519   1.000
    O565    O    0.41905   0.52656   0.29898   1.000
    O566    O    0.32982   0.96621   0.26519   1.000
    O567    O    0.41905   0.02655   0.29897   1.000
    O568    O    0.33008   0.27144   0.26972   1.000
    O569    O    0.35629   0.23645   0.28034   1.000
    O570    O    0.33007   0.77144   0.26970   1.000
    O571    O    0.35629   0.73645   0.28034   1.000
    O572    O    0.83007   0.27143   0.26972   1.000
    O573    O    0.85628   0.23645   0.28034   1.000
    O574    O    0.83006   0.77144   0.26970   1.000
    O575    O    0.85628   0.73645   0.28034   1.000
    O576    O    0.90290   0.19758   0.28898   1.000
    O577    O    0.94984   0.16275   0.32604   1.000
    O578    O    0.40291   0.19758   0.28898   1.000
    O579    O    0.44985   0.16275   0.32604   1.000
    O580    O    0.40290   0.69759   0.28898   1.000
    O581    O    0.44985   0.66276   0.32604   1.000
    O582    O    0.90289   0.69758   0.28898   1.000
    O583    O    0.94984   0.66276   0.32604   1.000
    O584    O    0.27725   0.43758   0.30901   1.000
    O585    O    0.27724   0.93758   0.30901   1.000
    O586    O    0.77723   0.43757   0.30902   1.000
    O587    O    0.77723   0.93758   0.30902   1.000
    O588    O    0.34744   0.81611   0.32683   1.000
    O589    O    0.84743   0.81610   0.32683   1.000
    O590    O    0.34745   0.31610   0.32685   1.000
    O591    O    0.84743   0.31610   0.32685   1.000
    O592    O    0.60525   0.38236   0.30683   1.000
    O593    O    0.60525   0.88236   0.30684   1.000
    O594    O    0.10526   0.38236   0.30684   1.000
    O595    O    0.10526   0.88236   0.30684   1.000
    O596    O    0.05398   0.85793   0.30830   1.000
    O597    O    0.05399   0.35792   0.30830   1.000
    O598    O    0.55398   0.35792   0.30830   1.000
    O599    O    0.55397   0.85793   0.30830   1.000
    O600    O    0.38943   0.25893   0.34437   1.000
    O601    O    0.38942   0.75893   0.34437   1.000
    O602    O    0.88942   0.25893   0.34434   1.000
    O603    O    0.88941   0.75893   0.34437   1.000
    O604    O    0.59354   0.83917   0.32884   1.000
    O605    O    0.58589   0.88541   0.35682   1.000
    O606    O    0.09355   0.83917   0.32884   1.000
    O607    O    0.08590   0.88540   0.35684   1.000
    O608    O    0.59354   0.33917   0.32884   1.000
    O609    O    0.58590   0.38540   0.35685   1.000
    O610    O    0.09355   0.33917   0.32884   1.000
    O611    O    0.08591   0.38540   0.35684   1.000
    O612    O    0.08293   0.29697   0.35255   1.000
    O613    O    0.14359   0.32562   0.35323   1.000
    O614    O    0.08292   0.79698   0.35255   1.000
    O615    O    0.14358   0.82563   0.35323   1.000
    O616    O    0.58291   0.79698   0.35256   1.000
    O617    O    0.64357   0.82563   0.35323   1.000
    O618    O    0.58292   0.29697   0.35256   1.000
    O619    O    0.64357   0.32562   0.35323   1.000
    O620    O    0.47514   0.08410   0.37231   1.000
    O621    O    0.97513   0.58411   0.37232   1.000
    O622    O    0.97513   0.08410   0.37231   1.000
    O623    O    0.47514   0.58411   0.37228   1.000
    O624    O    0.38459   0.80901   0.37456   1.000
    O625    O    0.37733   0.86268   0.39890   1.000
    O626    O    0.88458   0.80901   0.37456   1.000
    O627    O    0.87732   0.86268   0.39890   1.000
    O628    O    0.88458   0.30901   0.37453   1.000
    O629    O    0.87733   0.36268   0.39890   1.000
    O630    O    0.38459   0.30901   0.37456   1.000
    O631    O    0.37734   0.36268   0.39890   1.000
    O632    O    0.68865   0.32447   0.38388   1.000
    O633    O    0.68865   0.82447   0.38388   1.000
    O634    O    0.18866   0.82447   0.38388   1.000
    O635    O    0.18867   0.32447   0.38388   1.000
    O636    O    0.97994   0.63823   0.38903   1.000
    O637    O    0.97994   0.13823   0.38902   1.000
    O638    O    0.47995   0.13823   0.38903   1.000
    O639    O    0.47995   0.63823   0.38900   1.000
    O640    O    0.92282   0.29468   0.41999   1.000
    O641    O    0.92282   0.79469   0.42002   1.000
    O642    O    0.42283   0.79469   0.42002   1.000
    O643    O    0.42283   0.29469   0.42002   1.000
    O644    O    0.51274   0.62490   0.43782   1.000
    O645    O    0.01274   0.12489   0.43785   1.000
    O646    O    0.51273   0.12489   0.43786   1.000
    O647    O    0.01273   0.62490   0.43785   1.000
    O648    O    0.87512   0.91190   0.42457   1.000
    O649    O    0.37514   0.41190   0.42458   1.000
    O650    O    0.37512   0.91190   0.42459   1.000
    O651    O    0.87512   0.41190   0.42459   1.000
    O652    O    0.40948   0.40244   0.46797   1.000
    O653    O    0.90946   0.90244   0.46797   1.000
    O654    O    0.90946   0.40244   0.46797   1.000
    O655    O    0.40946   0.90244   0.46797   1.000
    O656    O    0.55895   0.06487   0.46946   1.000
    O657    O    0.05896   0.06486   0.46948   1.000
    O658    O    0.05895   0.56487   0.46948   1.000
    O659    O    0.55894   0.56487   0.46948   1.000
    O660    O    0.95631   0.78500   0.46405   1.000
    O661    O    0.95365   0.83394   0.48978   1.000
    O662    O    0.95631   0.28500   0.46404   1.000
    O663    O    0.95365   0.33393   0.48978   1.000
    O664    O    0.45632   0.78500   0.46405   1.000
    O665    O    0.45366   0.83394   0.48978   1.000
    O666    O    0.45632   0.28500   0.46405   1.000
    O667    O    0.45366   0.33394   0.48978   1.000
    O668    O    0.55242   0.61202   0.48664   1.000
    O669    O    0.54631   0.66610   0.51024   1.000
    O670    O    0.05244   0.11201   0.48664   1.000
    O671    O    0.04633   0.16609   0.51024   1.000
    O672    O    0.05243   0.61202   0.48664   1.000
    O673    O    0.04632   0.66610   0.51024   1.000
    O674    O    0.55242   0.11201   0.48662   1.000
    O675    O    0.54631   0.16610   0.51024   1.000
    O676    O    0.59051   0.09759   0.53204   1.000
    O677    O    0.09052   0.09759   0.53206   1.000
    O678    O    0.09052   0.59760   0.53206   1.000
    O679    O    0.59050   0.59760   0.53206   1.000
    O680    O    0.94754   0.88802   0.51338   1.000
    O681    O    0.94102   0.93517   0.53054   1.000
    O682    O    0.44756   0.38802   0.51338   1.000
    O683    O    0.44104   0.43517   0.53054   1.000
    O684    O    0.44755   0.88802   0.51339   1.000
    O685    O    0.44103   0.93517   0.53054   1.000
    O686    O    0.94755   0.38801   0.51339   1.000
    O687    O    0.94102   0.43516   0.53054   1.000
    O688    O    0.98723   0.87514   0.56217   1.000
    O689    O    0.48724   0.37513   0.56217   1.000
    O690    O    0.48724   0.87514   0.56217   1.000
    O691    O    0.98724   0.37513   0.56217   1.000
    O692    O    0.04367   0.71503   0.53572   1.000
    O693    O    0.54366   0.21503   0.53597   1.000
    O694    O    0.54365   0.71504   0.53597   1.000
    O695    O    0.04367   0.21503   0.53597   1.000
    O696    O    0.07716   0.70535   0.58000   1.000
    O697    O    0.07716   0.20534   0.58000   1.000
    O698    O    0.57715   0.70535   0.58000   1.000
    O699    O    0.57715   0.20535   0.58000   1.000
    O700    O    0.12486   0.58813   0.57544   1.000
    O701    O    0.12265   0.63735   0.60112   1.000
    O702    O    0.62485   0.08813   0.57544   1.000
    O703    O    0.62264   0.13735   0.60112   1.000
    O704    O    0.62485   0.58814   0.57493   1.000
    O705    O    0.62264   0.63736   0.60108   1.000
    O706    O    0.12486   0.08813   0.57543   1.000
    O707    O    0.12266   0.13735   0.60112   1.000
    O708    O    0.52002   0.86181   0.61099   1.000
    O709    O    0.52483   0.91593   0.62772   1.000
    O710    O    0.52003   0.36180   0.61099   1.000
    O711    O    0.52483   0.41593   0.62771   1.000
    O712    O    0.02004   0.86180   0.61099   1.000
    O713    O    0.02484   0.91593   0.62771   1.000
    O714    O    0.02004   0.36180   0.61099   1.000
    O715    O    0.02485   0.41592   0.62772   1.000
    O716    O    0.31133   0.17556   0.61614   1.000
    O717    O    0.31133   0.67556   0.61614   1.000
    O718    O    0.81132   0.17556   0.61614   1.000
    O719    O    0.81132   0.67557   0.61614   1.000
    O720    O    0.91407   0.11463   0.64317   1.000
    O721    O    0.91407   0.61463   0.64317   1.000
    O722    O    0.41408   0.61463   0.64318   1.000
    O723    O    0.41409   0.11463   0.64318   1.000
    O724    O    0.61538   0.69103   0.62543   1.000
    O725    O    0.61055   0.74111   0.65565   1.000
    O726    O    0.61539   0.19102   0.62546   1.000
    O727    O    0.61056   0.24111   0.65565   1.000
    O728    O    0.11540   0.69102   0.62546   1.000
    O729    O    0.11056   0.74111   0.65565   1.000
    O730    O    0.11540   0.19102   0.62546   1.000
    O731    O    0.11057   0.24110   0.65565   1.000
    O732    O    0.55012   0.83728   0.67397   1.000
    O733    O    0.55013   0.33728   0.67397   1.000
    O734    O    0.05014   0.83728   0.67397   1.000
    O735    O    0.05014   0.33727   0.67397   1.000
    O736    O    0.85639   0.67441   0.64680   1.000
    O737    O    0.35641   0.17441   0.64680   1.000
    O738    O    0.35641   0.67441   0.64680   1.000
    O739    O    0.85640   0.17441   0.64680   1.000
    O740    O    0.91705   0.70306   0.64747   1.000
    O741    O    0.41706   0.70306   0.64747   1.000
    O742    O    0.41707   0.20306   0.64747   1.000
    O743    O    0.91705   0.20306   0.64747   1.000
    O744    O    0.65253   0.68394   0.67314   1.000
    O745    O    0.15255   0.18393   0.67318   1.000
    O746    O    0.15254   0.68393   0.67318   1.000
    O747    O    0.65254   0.18393   0.67318   1.000
    O748    O    0.58093   0.47349   0.70102   1.000
    O749    O    0.08094   0.97348   0.70102   1.000
    O750    O    0.08094   0.47348   0.70103   1.000
    O751    O    0.58093   0.97348   0.70103   1.000
    O752    O    0.22274   0.56246   0.69100   1.000
    O753    O    0.72273   0.06246   0.69100   1.000
    O754    O    0.72273   0.56246   0.69100   1.000
    O755    O    0.22275   0.06245   0.69100   1.000
    O756    O    0.90643   0.66087   0.67118   1.000
    O757    O    0.90229   0.71550   0.71039   1.000
    O758    O    0.40645   0.16086   0.67118   1.000
    O759    O    0.40231   0.21550   0.71039   1.000
    O760    O    0.40644   0.66087   0.67118   1.000
    O761    O    0.40230   0.71550   0.71039   1.000
    O762    O    0.90643   0.16086   0.67118   1.000
    O763    O    0.90229   0.21550   0.71039   1.000
    O764    O    0.44601   0.14210   0.69172   1.000
    O765    O    0.39473   0.11767   0.69318   1.000
    O766    O    0.94599   0.64211   0.69172   1.000
    O767    O    0.89471   0.61767   0.69318   1.000
    O768    O    0.94599   0.14210   0.69172   1.000
    O769    O    0.89472   0.11767   0.69318   1.000
    O770    O    0.44600   0.64211   0.69172   1.000
    O771    O    0.39473   0.61767   0.69318   1.000
    O772    O    0.09709   0.80245   0.71103   1.000
    O773    O    0.14370   0.76358   0.71968   1.000
    O774    O    0.09709   0.30245   0.71103   1.000
    O775    O    0.14370   0.26358   0.71968   1.000
    O776    O    0.59708   0.30245   0.71103   1.000
    O777    O    0.64369   0.26358   0.71968   1.000
    O778    O    0.59707   0.80246   0.71103   1.000
    O779    O    0.64369   0.76359   0.71968   1.000
    O780    O    0.16991   0.72860   0.73030   1.000
    O781    O    0.20566   0.68134   0.74237   1.000
    O782    O    0.66991   0.22860   0.73030   1.000
    O783    O    0.70565   0.18134   0.74237   1.000
    O784    O    0.16992   0.22859   0.73030   1.000
    O785    O    0.20567   0.18134   0.74237   1.000
    O786    O    0.66990   0.72860   0.73030   1.000
    O787    O    0.70565   0.68134   0.74237   1.000
    O788    O    0.67016   0.53384   0.73481   1.000
    O789    O    0.67016   0.03383   0.73481   1.000
    O790    O    0.17017   0.53383   0.73481   1.000
    O791    O    0.17018   0.03383   0.73481   1.000
    O792    O    0.02347   0.81813   0.75767   1.000
    O793    O    0.02347   0.31812   0.75767   1.000
    O794    O    0.52347   0.31813   0.75767   1.000
    O795    O    0.52346   0.81813   0.75767   1.000
    O796    O    0.18631   0.28384   0.78970   1.000
    O797    O    0.18630   0.78384   0.78970   1.000
    O798    O    0.68629   0.28384   0.78966   1.000
    O799    O    0.68629   0.78384   0.78970   1.000
    O800    O    0.13571   0.96591   0.76539   1.000
    O801    O    0.10761   0.02695   0.79878   1.000
    O802    O    0.13571   0.46591   0.76539   1.000
    O803    O    0.10760   0.52696   0.79878   1.000
    O804    O    0.63569   0.96592   0.76539   1.000
    O805    O    0.60759   0.02696   0.79878   1.000
    O806    O    0.63570   0.46592   0.76539   1.000
    O807    O    0.60759   0.52696   0.79878   1.000
    O808    O    0.94090   0.27077   0.76975   1.000
    O809    O    0.88007   0.23576   0.78047   1.000
    O810    O    0.44091   0.77077   0.76975   1.000
    O811    O    0.38008   0.73577   0.78047   1.000
    O812    O    0.44092   0.27077   0.76975   1.000
    O813    O    0.38009   0.23576   0.78047   1.000
    O814    O    0.94090   0.77077   0.76975   1.000
    O815    O    0.88007   0.73577   0.78047   1.000
    O816    O    0.29501   0.19699   0.78910   1.000
    O817    O    0.21351   0.16259   0.82616   1.000
    O818    O    0.29500   0.69700   0.78910   1.000
    O819    O    0.21351   0.66259   0.82616   1.000
    O820    O    0.79499   0.19699   0.78910   1.000
    O821    O    0.71350   0.16259   0.82616   1.000
    O822    O    0.79499   0.69700   0.78910   1.000
    O823    O    0.71349   0.66260   0.82616   1.000
    O824    O    0.65885   0.93679   0.80944   1.000
    O825    O    0.65886   0.43679   0.80944   1.000
    O826    O    0.15886   0.93679   0.80944   1.000
    O827    O    0.15887   0.43679   0.80944   1.000
    O828    O    0.46798   0.31543   0.82686   1.000
    O829    O    0.46797   0.81543   0.82686   1.000
    O830    O    0.96796   0.81543   0.82686   1.000
    O831    O    0.96797   0.31542   0.82686   1.000
    O832    O    0.27568   0.38165   0.80675   1.000
    O833    O    0.77566   0.88166   0.80675   1.000
    O834    O    0.77567   0.38165   0.80675   1.000
    O835    O    0.27568   0.88165   0.80675   1.000
    O836    O    0.30276   0.35720   0.80803   1.000
    O837    O    0.80274   0.85720   0.80803   1.000
    O838    O    0.80274   0.35720   0.80803   1.000
    O839    O    0.30275   0.85720   0.80803   1.000
    O840    O    0.36942   0.25824   0.84453   1.000
    O841    O    0.36942   0.75824   0.84453   1.000
    O842    O    0.86941   0.25823   0.84453   1.000
    O843    O    0.86940   0.75824   0.84453   1.000
    O844    O    0.74473   0.83846   0.82880   1.000
    O845    O    0.79829   0.88468   0.85667   1.000
    O846    O    0.74473   0.33846   0.82875   1.000
    O847    O    0.79830   0.38468   0.85666   1.000
    O848    O    0.24474   0.33845   0.82880   1.000
    O849    O    0.29831   0.38468   0.85667   1.000
    O850    O    0.24474   0.83846   0.82880   1.000
    O851    O    0.29830   0.88468   0.85666   1.000
    O852    O    0.71371   0.29623   0.85245   1.000
    O853    O    0.68144   0.32490   0.85346   1.000
    O854    O    0.71371   0.79624   0.85249   1.000
    O855    O    0.68143   0.82490   0.85350   1.000
    O856    O    0.21372   0.79623   0.85249   1.000
    O857    O    0.18144   0.82490   0.85350   1.000
    O858    O    0.21373   0.29623   0.85249   1.000
    O859    O    0.18145   0.32489   0.85350   1.000
    O860    O    0.60926   0.58474   0.87207   1.000
    O861    O    0.10928   0.08473   0.87208   1.000
    O862    O    0.10927   0.58473   0.87208   1.000
    O863    O    0.60926   0.08473   0.87208   1.000
    O864    O    0.42396   0.30832   0.87466   1.000
    O865    O    0.48449   0.36198   0.89895   1.000
    O866    O    0.42396   0.80832   0.87466   1.000
    O867    O    0.48448   0.86198   0.89895   1.000
    O868    O    0.92395   0.30832   0.87466   1.000
    O869    O    0.98449   0.36197   0.89895   1.000
    O870    O    0.92395   0.80832   0.87466   1.000
    O871    O    0.98448   0.86198   0.89895   1.000
    O872    O    0.63542   0.82372   0.88445   1.000
    O873    O    0.63543   0.32372   0.88445   1.000
    O874    O    0.13544   0.82372   0.88445   1.000
    O875    O    0.13544   0.32371   0.88440   1.000
    O876    O    0.65879   0.63858   0.88907   1.000
    O877    O    0.15881   0.13857   0.88907   1.000
    O878    O    0.15880   0.63857   0.88907   1.000
    O879    O    0.65880   0.13857   0.88907   1.000
    O880    O    0.37165   0.79400   0.92018   1.000
    O881    O    0.37166   0.29400   0.92018   1.000
    O882    O    0.87165   0.29400   0.92018   1.000
    O883    O    0.87164   0.79401   0.92018   1.000
    O884    O    0.11262   0.12551   0.93774   1.000
    O885    O    0.11261   0.62551   0.93774   1.000
    O886    O    0.61260   0.12551   0.93775   1.000
    O887    O    0.61260   0.62552   0.93775   1.000
    O888    O    0.03558   0.91118   0.92460   1.000
    O889    O    0.53557   0.41118   0.92461   1.000
    O890    O    0.53556   0.91118   0.92461   1.000
    O891    O    0.03558   0.41117   0.92462   1.000
    O892    O    0.00693   0.06562   0.96939   1.000
    O893    O    0.50693   0.06562   0.96939   1.000
    O894    O    0.00692   0.56562   0.96939   1.000
    O895    O    0.50692   0.56563   0.96939   1.000
    O896    O    0.82866   0.78433   0.96424   1.000
    O897    O    0.82866   0.28432   0.96424   1.000
    O898    O    0.32867   0.78433   0.96424   1.000
    O899    O    0.32868   0.28433   0.96424   1.000
    O900    O    0.06027   0.61273   0.98653   1.000
    O901    O    0.06028   0.11273   0.98653   1.000
    O902    O    0.56026   0.61274   0.98654   1.000
    O903    O    0.56026   0.11273   0.98654   1.000
    O904    O    0.10972   0.38383   0.75506   1.000
    O905    O    0.10971   0.88384   0.75506   1.000
    O906    O    0.60970   0.38383   0.75506   1.000
    O907    O    0.60970   0.88384   0.75506   1.000
    O908    O    0.22655   0.11562   0.74520   1.000
    O909    O    0.22654   0.61562   0.74520   1.000
    O910    O    0.72653   0.11562   0.74519   1.000
    O911    O    0.72653   0.61563   0.74519   1.000
    O912    O    0.39027   0.11620   0.24497   1.000
    O913    O    0.39027   0.61621   0.24497   1.000
    O914    O    0.89026   0.11620   0.24497   1.000
    O915    O    0.89026   0.61620   0.24497   1.000
    O916    O    0.27345   0.38441   0.25482   1.000
    O917    O    0.27344   0.88441   0.25482   1.000
    O918    O    0.77344   0.38441   0.25482   1.000
    O919    O    0.77343   0.88441   0.25482   1.000
loop_
    _geom_bond_atom_site_label_1
    _geom_bond_atom_site_label_2
    _geom_bond_distance
    _geom_bond_site_symmetry_2
    _ccdc_geom_bond_type
    C316   O424      0.70874      .   S
    C296   O424      0.70874      .   S
    C316   O425      0.54432      .   S
    C142   O425      0.54432      .   S
    C316   O426      0.69492  1_554   S
    C302   O426      0.69492      .   S
    C317   O427      0.70845      .   S
    C297   O427      0.70845      .   S
    C317   O428      0.54431      .   S
    C143   O428      0.54431      .   S
    C317   O429      0.69492  1_554   S
    C303   O429      0.69492      .   S
    C318   O430      0.70876      .   S
    C298   O430      0.70876      .   S
    C318   O431      0.54434      .   S
    C140   O431      0.54434  1_455   S
    C318   O432      0.69503  1_554   S
    C300   O432      0.69503  1_455   S
    C319   O433      0.70874      .   S
    C299   O433      0.70874      .   S
    C319   O434      0.54434      .   S
    C141   O434      0.54434  1_455   S
    C319   O435      0.69504  1_554   S
    C301   O435      0.69504  1_455   S
    C297   O436      0.74851      .   S
    C293   O436      0.74851      .   S
    C297   O437      0.69952  1_554   S
    C289   O437      0.69952      .   S
    C299   O438      0.74790      .   S
    C295   O438      0.74790      .   S
    C299   O439      0.69984  1_554   S
    C291   O439      0.69984      .   S
    C298   O440      0.74790      .   S
    C294   O440      0.74790      .   S
    C298   O441      0.69984  1_554   S
    C290   O441      0.69984      .   S
    C296   O442      0.74790      .   S
    C292   O442      0.74790      .   S
    C296   O443      0.69985  1_554   S
    C288   O443      0.69985      .   S
    C60    O444      0.54342      .   S
    C208   O444      0.54342      .   S
    C61    O445      0.54342      .   S
    C209   O445      0.54342      .   S
    C62    O446      0.54342      .   S
    C210   O446      0.54342      .   S
    C63    O447      0.54342      .   S
    C211   O447      0.54342      .   S
    C208   O448      0.69688      .   S
    C224   O448      0.69688      .   S
    C208   O449      0.69994      .   S
    C216   O449      0.69994  1_556   S
    C211   O450      0.69687      .   S
    C227   O450      0.69687      .   S
    C211   O451      0.69983      .   S
    C219   O451      0.69983  1_556   S
    C210   O452      0.69687      .   S
    C226   O452      0.69687      .   S
    C210   O453      0.69983      .   S
    C218   O453      0.69983  1_556   S
    C209   O454      0.69688      .   S
    C225   O454      0.69688      .   S
    C209   O455      0.69994      .   S
    C217   O455      0.69994  1_556   S
    C220   O456      0.54415      .   S
    C64    O456      0.54415      .   S
    C220   O457      0.70144      .   S
    C234   O457      0.70144      .   S
    C220   O458      0.69491      .   S
    C238   O458      0.69491  1_556   S
    C221   O459      0.54415      .   S
    C65    O459      0.54415      .   S
    C221   O460      0.70145      .   S
    C235   O460      0.70145      .   S
    C221   O461      0.69490      .   S
    C239   O461      0.69490  1_556   S
    C222   O462      0.54418      .   S
    C66    O462      0.54418      .   S
    C222   O463      0.70150  1_655   S
    C232   O463      0.70150      .   S
    C222   O464      0.69503  1_655   S
    C236   O464      0.69503  1_556   S
    C223   O465      0.54417      .   S
    C67    O465      0.54417      .   S
    C223   O466      0.70150  1_655   S
    C233   O466      0.70150      .   S
    C223   O467      0.69504  1_655   S
    C237   O467      0.69504  1_556   S
    C293   O468      0.63955      .   S
    C417   O468      0.63955      .   S
    C293   O469      0.63993      .   S
    C409   O469      0.63993      .   S
    C294   O470      0.63936      .   S
    C418   O470      0.63936      .   S
    C294   O471      0.63994      .   S
    C410   O471      0.63994      .   S
    C295   O472      0.63938      .   S
    C419   O472      0.63938      .   S
    C295   O473      0.63984      .   S
    C411   O473      0.63984      .   S
    C292   O474      0.63937      .   S
    C416   O474      0.63937      .   S
    C292   O475      0.63992      .   S
    C408   O475      0.63992      .   S
    C36    O476      0.48761      .   S
    C372   O476      0.48761      .   S
    C38    O477      0.48761      .   S
    C374   O477      0.48761      .   S
    C37    O478      0.48747      .   S
    C373   O478      0.48747      .   S
    C39    O479      0.48748      .   S
    C375   O479      0.48748      .   S
    C47    O480      0.54872      .   S
    C207   O480      0.54872      .   S
    C46    O481      0.54872      .   S
    C206   O481      0.54872      .   S
    C44    O482      0.54872      .   S
    C204   O482      0.54872      .   S
    C45    O483      0.54872      .   S
    C205   O483      0.54872      .   S
    C416   O484      1.02195      .   S
    C12    O484      1.02195      .   S
    C419   O485      1.02194      .   S
    C15    O485      1.02194      .   S
    C418   O486      1.02195      .   S
    C14    O486      1.02195      .   S
    C225   O487      0.71032      .   S
    C233   O487      0.71032      .   S
    C225   O488      0.69572      .   S
    C337   O488      0.69572      .   S
    C227   O489      0.71032      .   S
    C235   O489      0.71032      .   S
    C227   O490      0.69618      .   S
    C339   O490      0.69618      .   S
    C226   O491      0.71032      .   S
    C234   O491      0.71032      .   S
    C226   O492      0.69618      .   S
    C338   O492      0.69618      .   S
    C224   O493      0.71032      .   S
    C232   O493      0.71032      .   S
    C224   O494      0.69572      .   S
    C336   O494      0.69572      .   S
    C417   O495      1.02156      .   S
    C13    O495      1.02156      .   S
    C374   O496      0.72322      .   S
    C202   O496      0.72322      .   S
    C373   O497      0.72321      .   S
    C201   O497      0.72321      .   S
    C372   O498      0.72321      .   S
    C200   O498      0.72321      .   S
    C375   O499      0.72319      .   S
    C203   O499      0.72319      .   S
    C42    O500      0.55038      .   S
    C202   O500      0.55038      .   S
    C41    O501      0.55039      .   S
    C201   O501      0.55039      .   S
    C40    O502      0.55039      .   S
    C200   O502      0.55039      .   S
    C43    O503      0.55038      .   S
    C203   O503      0.55038      .   S
    C232   O504      0.69599      .   S
    C340   O504      0.69599      .   S
    C233   O505      0.69600      .   S
    C341   O505      0.69600      .   S
    C234   O506      0.69599      .   S
    C342   O506      0.69599      .   S
    C235   O507      0.69599      .   S
    C343   O507      0.69599      .   S
    C411   O508      0.99625      .   S
    C22    O508      0.99625      .   S
    C409   O509      0.99608      .   S
    C20    O509      0.99608      .   S
    C408   O510      0.99617      .   S
    C21    O510      0.99617      .   S
    C410   O511      0.99613      .   S
    C23    O511      0.99613      .   S
    C131   O512      0.48533      .   S
    C399   O512      0.48533      .   S
    C130   O513      0.48532      .   S
    C398   O513      0.48532      .   S
    C128   O514      0.48532      .   S
    C396   O514      0.48532      .   S
    C129   O515      0.48532      .   S
    C397   O515      0.48532      .   S
    C200   O516      0.76275      .   S
    C204   O516      0.76275      .   S
    C200   O517      0.75286      .   S
    C188   O517      0.75286      .   S
    C201   O518      0.76275      .   S
    C205   O518      0.76275      .   S
    C201   O519      0.75285      .   S
    C189   O519      0.75285      .   S
    C202   O520      0.76275      .   S
    C206   O520      0.76275      .   S
    C202   O521      0.75285      .   S
    C190   O521      0.75285      .   S
    C203   O522      0.76276      .   S
    C207   O522      0.76276      .   S
    C203   O523      0.75285      .   S
    C191   O523      0.75285      .   S
    C207   O524      0.54848      .   S
    C55    O524      0.54848      .   S
    C207   O525      0.54918      .   S
    C51    O525      0.54918      .   S
    C204   O526      0.54848      .   S
    C52    O526      0.54848      .   S
    C204   O527      0.54919      .   S
    C48    O527      0.54919      .   S
    C205   O528      0.54848      .   S
    C53    O528      0.54848      .   S
    C205   O529      0.54919      .   S
    C49    O529      0.54919      .   S
    C206   O530      0.54847      .   S
    C54    O530      0.54847      .   S
    C206   O531      0.54919      .   S
    C50    O531      0.54919      .   S
    C337   O532      1.00781      .   S
    C13    O532      1.00781      .   S
    C337   O533      0.67642      .   S
    C229   O533      0.67642      .   S
    C336   O534      1.00780      .   S
    C12    O534      1.00780      .   S
    C336   O535      0.67641      .   S
    C228   O535      0.67641      .   S
    C338   O536      1.00774      .   S
    C14    O536      1.00774      .   S
    C338   O537      0.67588      .   S
    C230   O537      0.67588      .   S
    C339   O538      1.00775      .   S
    C15    O538      1.00775      .   S
    C339   O539      0.67588      .   S
    C231   O539      0.67588      .   S
    C340   O540      0.67903      .   S
    C228   O540      0.67903      .   S
    C340   O541      1.01534  1_455   S
    C10    O541      1.01534      .   S
    C342   O542      0.67904      .   S
    C230   O542      0.67904      .   S
    C342   O543      1.01516      .   S
    C8     O543      1.01516      .   S
    C343   O544      0.67903      .   S
    C231   O544      0.67903      .   S
    C343   O545      1.01516      .   S
    C9     O545      1.01516      .   S
    C341   O546      0.67903      .   S
    C229   O546      0.67903      .   S
    C341   O547      1.01534  1_455   S
    C11    O547      1.01534      .   S
    C396   O548      0.97413      .   S
    C20    O548      0.97413  1_565   S
    C397   O549      0.97413      .   S
    C21    O549      0.97413      .   S
    C398   O550      0.97413      .   S
    C22    O550      0.97413  1_565   S
    C399   O551      0.97414      .   S
    C23    O551      0.97414      .   S
    C13    O552      1.01521      .   S
    C333   O552      1.01521      .   S
    C14    O553      1.01537      .   S
    C334   O553      1.01537      .   S
    C15    O554      1.01521      .   S
    C335   O554      1.01521      .   S
    C12    O555      1.01537      .   S
    C332   O555      1.01537      .   S
    C228   O556      0.75277      .   S
    C240   O556      0.75277      .   S
    C229   O557      0.75277      .   S
    C241   O557      0.75277      .   S
    C230   O558      0.75283      .   S
    C242   O558      0.75283      .   S
    C231   O559      0.75283      .   S
    C243   O559      0.75283      .   S
    C22    O560      0.97441      .   S
    C415   O560      0.97441      .   S
    C22    O561      0.99703  1_565   S
    C394   O561      0.99703      .   S
    C23    O562      0.97442      .   S
    C414   O562      0.97442      .   S
    C23    O563      0.99704      .   S
    C395   O563      0.99704      .   S
    C21    O564      0.97442      .   S
    C412   O564      0.97442      .   S
    C21    O565      0.99702      .   S
    C393   O565      0.99702      .   S
    C20    O566      0.97442      .   S
    C413   O566      0.97442      .   S
    C20    O567      0.99700  1_565   S
    C392   O567      0.99700      .   S
    C188   O568      0.67907      .   S
    C332   O568      0.67907      .   S
    C188   O569      0.67596      .   S
    C328   O569      0.67596      .   S
    C189   O570      0.67905      .   S
    C333   O570      0.67905      .   S
    C189   O571      0.67596      .   S
    C329   O571      0.67596      .   S
    C190   O572      0.67908      .   S
    C334   O572      0.67908      .   S
    C190   O573      0.67596      .   S
    C330   O573      0.67596      .   S
    C191   O574      0.67905      .   S
    C335   O574      0.67905      .   S
    C191   O575      0.67596      .   S
    C331   O575      0.67596      .   S
    C10    O576      1.00839      .   S
    C330   O576      1.00839      .   S
    C10    O577      1.02054      .   S
    C402   O577      1.02054      .   S
    C8     O578      1.00839      .   S
    C328   O578      1.00839      .   S
    C8     O579      1.02056      .   S
    C400   O579      1.02056      .   S
    C9     O580      1.00839      .   S
    C329   O580      1.00839      .   S
    C9     O581      1.02054      .   S
    C401   O581      1.02054      .   S
    C11    O582      1.00839      .   S
    C331   O582      1.00839      .   S
    C11    O583      1.02055      .   S
    C403   O583      1.02055      .   S
    C412   O584      0.48529      .   S
    C164   O584      0.48529      .   S
    C413   O585      0.48529      .   S
    C165   O585      0.48529      .   S
    C414   O586      0.48536      .   S
    C166   O586      0.48536      .   S
    C415   O587      0.48536      .   S
    C167   O587      0.48536      .   S
    C333   O588      0.69620      .   S
    C193   O588      0.69620      .   S
    C335   O589      0.69621      .   S
    C195   O589      0.69621      .   S
    C332   O590      0.69601      .   S
    C192   O590      0.69601      .   S
    C334   O591      0.69600      .   S
    C194   O591      0.69600      .   S
    C86    O592      0.54931      .   S
    C246   O592      0.54931      .   S
    C87    O593      0.54919      .   S
    C247   O593      0.54919      .   S
    C84    O594      0.54919      .   S
    C244   O594      0.54919      .   S
    C85    O595      0.54919      .   S
    C245   O595      0.54919      .   S
    C89    O596      0.54846      .   S
    C245   O596      0.54846      .   S
    C88    O597      0.54846      .   S
    C244   O597      0.54846      .   S
    C90    O598      0.54842      .   S
    C246   O598      0.54842      .   S
    C91    O599      0.54843      .   S
    C247   O599      0.54843      .   S
    C328   O600      0.69623      .   S
    C184   O600      0.69623      .   S
    C329   O601      0.69623      .   S
    C185   O601      0.69623      .   S
    C330   O602      0.69588      .   S
    C186   O602      0.69588      .   S
    C331   O603      0.69623      .   S
    C187   O603      0.69623      .   S
    C247   O604      0.76281      .   S
    C243   O604      0.76281      .   S
    C247   O605      0.54855      .   S
    C83    O605      0.54855      .   S
    C245   O606      0.76279      .   S
    C241   O606      0.76279      .   S
    C245   O607      0.54873      .   S
    C81    O607      0.54873      .   S
    C246   O608      0.76281      .   S
    C242   O608      0.76281      .   S
    C246   O609      0.54879      .   S
    C82    O609      0.54879      .   S
    C244   O610      0.76278      .   S
    C240   O610      0.76278      .   S
    C244   O611      0.54873      .   S
    C80    O611      0.54873      .   S
    C240   O612      0.55041      .   S
    C76    O612      0.55041      .   S
    C240   O613      0.72327      .   S
    C388   O613      0.72327      .   S
    C241   O614      0.55041      .   S
    C77    O614      0.55041      .   S
    C241   O615      0.72327      .   S
    C389   O615      0.72327      .   S
    C243   O616      0.55035      .   S
    C79    O616      0.55035      .   S
    C243   O617      0.72324      .   S
    C391   O617      0.72324      .   S
    C242   O618      0.55035      .   S
    C78    O618      0.55035      .   S
    C242   O619      0.72324      .   S
    C390   O619      0.72324      .   S
    C392   O620      0.63996      .   S
    C252   O620      0.63996      .   S
    C395   O621      0.63995      .   S
    C255   O621      0.63995      .   S
    C394   O622      0.63993      .   S
    C254   O622      0.63993      .   S
    C393   O623      0.63977      .   S
    C253   O623      0.63977      .   S
    C193   O624      0.71035      .   S
    C185   O624      0.71035      .   S
    C193   O625      0.70147      .   S
    C181   O625      0.70147      .   S
    C195   O626      0.71034      .   S
    C187   O626      0.71034      .   S
    C195   O627      0.70146      .   S
    C183   O627      0.70146      .   S
    C194   O628      0.71013      .   S
    C186   O628      0.71013      .   S
    C194   O629      0.70147      .   S
    C182   O629      0.70147      .   S
    C192   O630      0.71034      .   S
    C184   O630      0.71034      .   S
    C192   O631      0.70147      .   S
    C180   O631      0.70147      .   S
    C390   O632      0.48748      .   S
    C74    O632      0.48748      .   S
    C391   O633      0.48748      .   S
    C75    O633      0.48748      .   S
    C389   O634      0.48746      .   S
    C73    O634      0.48746      .   S
    C388   O635      0.48747      .   S
    C72    O635      0.48747      .   S
    C403   O636      0.63960      .   S
    C255   O636      0.63960      .   S
    C402   O637      0.63959      .   S
    C254   O637      0.63959      .   S
    C400   O638      0.63958      .   S
    C252   O638      0.63958      .   S
    C401   O639      0.63937      .   S
    C253   O639      0.63937      .   S
    C186   O640      0.69729      .   S
    C170   O640      0.69729      .   S
    C187   O641      0.69682      .   S
    C171   O641      0.69682      .   S
    C185   O642      0.69680      .   S
    C169   O642      0.69680      .   S
    C184   O643      0.69682      .   S
    C168   O643      0.69682      .   S
    C253   O644      0.74836      .   S
    C259   O644      0.74836      .   S
    C254   O645      0.74807  1_655   S
    C256   O645      0.74807      .   S
    C252   O646      0.74796      .   S
    C258   O646      0.74796      .   S
    C255   O647      0.74800  1_655   S
    C257   O647      0.74800      .   S
    C31    O648      0.54424      .   S
    C183   O648      0.54424      .   S
    C28    O649      0.54417      .   S
    C180   O649      0.54417      .   S
    C29    O650      0.54414      .   S
    C181   O650      0.54414      .   S
    C30    O651      0.54413      .   S
    C182   O651      0.54413      .   S
    C180   O652      0.69515      .   S
    C196   O652      0.69515      .   S
    C183   O653      0.69516      .   S
    C199   O653      0.69516      .   S
    C182   O654      0.69521      .   S
    C198   O654      0.69521      .   S
    C181   O655      0.69521      .   S
    C197   O655      0.69521      .   S
    C106   O656      0.54419      .   S
    C278   O656      0.54419      .   S
    C104   O657      0.54433      .   S
    C276   O657      0.54433      .   S
    C105   O658      0.54434      .   S
    C277   O658      0.54434      .   S
    C107   O659      0.54433      .   S
    C279   O659      0.54433      .   S
    C171   O660      0.54342      .   S
    C27    O660      0.54342      .   S
    C171   O661      0.70007      .   S
    C179   O661      0.70007      .   S
    C170   O662      0.54334      .   S
    C26    O662      0.54334      .   S
    C170   O663      0.70009      .   S
    C178   O663      0.70009      .   S
    C169   O664      0.54343      .   S
    C25    O664      0.54343      .   S
    C169   O665      0.70008      .   S
    C177   O665      0.70008      .   S
    C168   O666      0.54342      .   S
    C24    O666      0.54342      .   S
    C168   O667      0.70007      .   S
    C176   O667      0.70007      .   S
    C259   O668      0.70874      .   S
    C279   O668      0.70874      .   S
    C259   O669      0.70008      .   S
    C251   O669      0.70008      .   S
    C256   O670      0.70874      .   S
    C276   O670      0.70874      .   S
    C256   O671      0.70008      .   S
    C248   O671      0.70008      .   S
    C257   O672      0.70874      .   S
    C277   O672      0.70874      .   S
    C257   O673      0.70010      .   S
    C249   O673      0.70010      .   S
    C258   O674      0.70861      .   S
    C278   O674      0.70861      .   S
    C258   O675      0.70008      .   S
    C250   O675      0.70008      .   S
    C278   O676      0.69540      .   S
    C262   O676      0.69540      .   S
    C276   O677      0.69515      .   S
    C260   O677      0.69515      .   S
    C277   O678      0.69515      .   S
    C261   O678      0.69515      .   S
    C279   O679      0.69515      .   S
    C263   O679      0.69515      .   S
    C199   O680      0.70874      .   S
    C179   O680      0.70874      .   S
    C199   O681      0.54433      .   S
    C35    O681      0.54433      .   S
    C196   O682      0.70874      .   S
    C176   O682      0.70874      .   S
    C196   O683      0.54433      .   S
    C32    O683      0.54433      .   S
    C197   O684      0.70872      .   S
    C177   O684      0.70872      .   S
    C197   O685      0.54430      .   S
    C33    O685      0.54430      .   S
    C198   O686      0.70872      .   S
    C178   O686      0.70872      .   S
    C198   O687      0.54429      .   S
    C34    O687      0.54429      .   S
    C179   O688      0.74807      .   S
    C173   O688      0.74807  1_455   S
    C176   O689      0.74795      .   S
    C174   O689      0.74795      .   S
    C177   O690      0.74795      .   S
    C175   O690      0.74795      .   S
    C178   O691      0.74807      .   S
    C172   O691      0.74807  1_455   S
    C97    O692      0.54497      .   S
    C249   O692      0.54497      .   S
    C98    O693      0.54343      .   S
    C250   O693      0.54343      .   S
    C99    O694      0.54339      .   S
    C251   O694      0.54339      .   S
    C96    O695      0.54340      .   S
    C248   O695      0.54340      .   S
    C249   O696      0.69688      .   S
    C265   O696      0.69688      .   S
    C248   O697      0.69688      .   S
    C264   O697      0.69688      .   S
    C251   O698      0.69689      .   S
    C267   O698      0.69689      .   S
    C250   O699      0.69686      .   S
    C266   O699      0.69686      .   S
    C261   O700      0.54418      .   S
    C101   O700      0.54418      .   S
    C261   O701      0.70147      .   S
    C273   O701      0.70147      .   S
    C262   O702      0.54418      .   S
    C102   O702      0.54418      .   S
    C262   O703      0.70147      .   S
    C274   O703      0.70147      .   S
    C263   O704      0.54105      .   S
    C103   O704      0.54105      .   S
    C263   O705      0.70124      .   S
    C275   O705      0.70124      .   S
    C260   O706      0.54414      .   S
    C100   O706      0.54414      .   S
    C260   O707      0.70146      .   S
    C272   O707      0.70146      .   S
    C175   O708      0.63957      .   S
    C371   O708      0.63957      .   S
    C175   O709      0.63995      .   S
    C363   O709      0.63995      .   S
    C174   O710      0.63960      .   S
    C370   O710      0.63960      .   S
    C174   O711      0.63993      .   S
    C362   O711      0.63993      .   S
    C173   O712      0.63959      .   S
    C369   O712      0.63959      .   S
    C173   O713      0.63993      .   S
    C361   O713      0.63993      .   S
    C172   O714      0.63958      .   S
    C368   O714      0.63958      .   S
    C172   O715      0.63995      .   S
    C360   O715      0.63995      .   S
    C144   O716      0.48747      .   S
    C420   O716      0.48747      .   S
    C145   O717      0.48748      .   S
    C421   O717      0.48748      .   S
    C146   O718      0.48749      .   S
    C422   O718      0.48749      .   S
    C147   O719      0.48747      .   S
    C423   O719      0.48747      .   S
    C154   O720      0.54879      .   S
    C326   O720      0.54879      .   S
    C155   O721      0.54879      .   S
    C327   O721      0.54879      .   S
    C153   O722      0.54873      .   S
    C325   O722      0.54873      .   S
    C152   O723      0.54873      .   S
    C324   O723      0.54873      .   S
    C267   O724      0.71012      .   S
    C275   O724      0.71012      .   S
    C267   O725      0.69618      .   S
    C347   O725      0.69618      .   S
    C266   O726      0.71032      .   S
    C274   O726      0.71032      .   S
    C266   O727      0.69620      .   S
    C346   O727      0.69620      .   S
    C265   O728      0.71031      .   S
    C273   O728      0.71031      .   S
    C265   O729      0.69618      .   S
    C345   O729      0.69618      .   S
    C264   O730      0.71031      .   S
    C272   O730      0.71031      .   S
    C264   O731      0.69618      .   S
    C344   O731      0.69618      .   S
    C371   O732      1.02054      .   S
    C3     O732      1.02054      .   S
    C370   O733      1.02053      .   S
    C2     O733      1.02053      .   S
    C369   O734      1.02053      .   S
    C1     O734      1.02053      .   S
    C368   O735      1.02054      .   S
    C0     O735      1.02054      .   S
    C423   O736      0.72326      .   S
    C323   O736      0.72326      .   S
    C420   O737      0.72326      .   S
    C320   O737      0.72326      .   S
    C421   O738      0.72327      .   S
    C321   O738      0.72327      .   S
    C422   O739      0.72326      .   S
    C322   O739      0.72326      .   S
    C151   O740      0.55042      .   S
    C323   O740      0.55042      .   S
    C149   O741      0.55041      .   S
    C321   O741      0.55041      .   S
    C148   O742      0.55041      .   S
    C320   O742      0.55041      .   S
    C150   O743      0.55042      .   S
    C322   O743      0.55042      .   S
    C275   O744      0.69642      .   S
    C351   O744      0.69642      .   S
    C272   O745      0.69601      .   S
    C348   O745      0.69601      .   S
    C273   O746      0.69600      .   S
    C349   O746      0.69600      .   S
    C274   O747      0.69599      .   S
    C350   O747      0.69599      .   S
    C362   O748      0.99687      .   S
    C19    O748      0.99687      .   S
    C361   O749      0.99690      .   S
    C16    O749      0.99690  1_545   S
    C360   O750      0.99683      .   S
    C17    O750      0.99683      .   S
    C363   O751      0.99688      .   S
    C18    O751      0.99688  1_545   S
    C93    O752      0.48534      .   S
    C381   O752      0.48534      .   S
    C94    O753      0.48526      .   S
    C382   O753      0.48526      .   S
    C95    O754      0.48527      .   S
    C383   O754      0.48527      .   S
    C92    O755      0.48535      .   S
    C380   O755      0.48535      .   S
    C323   O756      0.76279      .   S
    C327   O756      0.76279      .   S
    C323   O757      0.75277      .   S
    C311   O757      0.75277      .   S
    C320   O758      0.76279      .   S
    C324   O758      0.76279      .   S
    C320   O759      0.75277      .   S
    C308   O759      0.75277      .   S
    C321   O760      0.76279      .   S
    C325   O760      0.76279      .   S
    C321   O761      0.75277      .   S
    C309   O761      0.75277      .   S
    C322   O762      0.76280      .   S
    C326   O762      0.76280      .   S
    C322   O763      0.75276      .   S
    C310   O763      0.75276      .   S
    C324   O764      0.54846      .   S
    C160   O764      0.54846      .   S
    C324   O765      0.54920      .   S
    C156   O765      0.54920      .   S
    C327   O766      0.54843      .   S
    C163   O766      0.54843      .   S
    C327   O767      0.54914      .   S
    C159   O767      0.54914      .   S
    C326   O768      0.54843      .   S
    C162   O768      0.54843      .   S
    C326   O769      0.54913      .   S
    C158   O769      0.54913      .   S
    C325   O770      0.54846      .   S
    C161   O770      0.54846      .   S
    C325   O771      0.54920      .   S
    C157   O771      0.54920      .   S
    C345   O772      1.00841      .   S
    C1     O772      1.00841      .   S
    C345   O773      0.67596      .   S
    C269   O773      0.67596      .   S
    C344   O774      1.00840      .   S
    C0     O774      1.00840      .   S
    C344   O775      0.67596      .   S
    C268   O775      0.67596      .   S
    C346   O776      1.00841      .   S
    C2     O776      1.00841      .   S
    C346   O777      0.67596      .   S
    C270   O777      0.67596      .   S
    C347   O778      1.00842      .   S
    C3     O778      1.00842      .   S
    C347   O779      0.67596      .   S
    C271   O779      0.67596      .   S
    C349   O780      0.67908      .   S
    C269   O780      0.67908      .   S
    C349   O781      1.01538      .   S
    C5     O781      1.01538      .   S
    C350   O782      0.67907      .   S
    C270   O782      0.67907      .   S
    C350   O783      1.01539      .   S
    C6     O783      1.01539      .   S
    C348   O784      0.67908      .   S
    C268   O784      0.67908      .   S
    C348   O785      1.01538      .   S
    C4     O785      1.01538      .   S
    C351   O786      0.67908      .   S
    C271   O786      0.67908      .   S
    C351   O787      1.01539      .   S
    C7     O787      1.01539      .   S
    C383   O788      0.97431      .   S
    C19    O788      0.97431      .   S
    C382   O789      0.97431      .   S
    C18    O789      0.97431      .   S
    C381   O790      0.97428      .   S
    C17    O790      0.97428      .   S
    C380   O791      0.97428      .   S
    C16    O791      0.97428      .   S
    C1     O792      1.01534      .   S
    C359   O792      1.01534  1_655   S
    C0     O793      1.01534      .   S
    C358   O793      1.01534  1_655   S
    C2     O794      1.01517      .   S
    C356   O794      1.01517      .   S
    C3     O795      1.01516      .   S
    C357   O795      1.01516      .   S
    C268   O796      0.75286      .   S
    C280   O796      0.75286      .   S
    C269   O797      0.75286      .   S
    C281   O797      0.75286      .   S
    C270   O798      0.75233      .   S
    C282   O798      0.75233      .   S
    C271   O799      0.75286      .   S
    C283   O799      0.75286      .   S
    C16    O800      0.97412  1_545   S
    C365   O800      0.97412      .   S
    C16    O801      0.99632      .   S
    C376   O801      0.99632      .   S
    C17    O802      0.97426      .   S
    C364   O802      0.97426      .   S
    C17    O803      0.99631      .   S
    C377   O803      0.99631      .   S
    C18    O804      0.97412  1_545   S
    C367   O804      0.97412      .   S
    C18    O805      0.99632      .   S
    C378   O805      0.99632      .   S
    C19    O806      0.97425      .   S
    C366   O806      0.97425      .   S
    C19    O807      0.99628      .   S
    C379   O807      0.99628      .   S
    C310   O808      0.67903      .   S
    C358   O808      0.67903      .   S
    C310   O809      0.67594      .   S
    C354   O809      0.67594      .   S
    C309   O810      0.67903      .   S
    C357   O810      0.67903      .   S
    C309   O811      0.67594      .   S
    C353   O811      0.67594      .   S
    C308   O812      0.67903      .   S
    C356   O812      0.67903      .   S
    C308   O813      0.67594      .   S
    C352   O813      0.67594      .   S
    C311   O814      0.67903      .   S
    C359   O814      0.67903      .   S
    C311   O815      0.67594      .   S
    C355   O815      0.67594      .   S
    C4     O816      1.00775      .   S
    C352   O816      1.00775      .   S
    C4     O817      1.02154      .   S
    C384   O817      1.02154      .   S
    C5     O818      1.00775      .   S
    C353   O818      1.00775      .   S
    C5     O819      1.02154      .   S
    C385   O819      1.02154      .   S
    C6     O820      1.00775      .   S
    C354   O820      1.00775      .   S
    C6     O821      1.02154      .   S
    C386   O821      1.02154      .   S
    C7     O822      1.00775      .   S
    C355   O822      1.00775      .   S
    C7     O823      1.02154      .   S
    C387   O823      1.02154      .   S
    C367   O824      0.48536      .   S
    C59    O824      0.48536      .   S
    C366   O825      0.48538      .   S
    C58    O825      0.48538      .   S
    C365   O826      0.48537      .   S
    C57    O826      0.48537      .   S
    C364   O827      0.48536      .   S
    C56    O827      0.48536      .   S
    C356   O828      0.69600      .   S
    C312   O828      0.69600      .   S
    C357   O829      0.69600      .   S
    C313   O829      0.69600      .   S
    C359   O830      0.69600      .   S
    C315   O830      0.69600      .   S
    C358   O831      0.69599      .   S
    C314   O831      0.69599      .   S
    C120   O832      0.54917      .   S
    C284   O832      0.54917      .   S
    C123   O833      0.54916      .   S
    C287   O833      0.54916      .   S
    C122   O834      0.54917      .   S
    C286   O834      0.54917      .   S
    C121   O835      0.54917      .   S
    C285   O835      0.54917      .   S
    C124   O836      0.54849      .   S
    C284   O836      0.54849      .   S
    C127   O837      0.54849      .   S
    C287   O837      0.54849      .   S
    C126   O838      0.54848      .   S
    C286   O838      0.54848      .   S
    C125   O839      0.54847      .   S
    C285   O839      0.54847      .   S
    C352   O840      0.69614      .   S
    C304   O840      0.69614      .   S
    C353   O841      0.69614      .   S
    C305   O841      0.69614      .   S
    C354   O842      0.69614      .   S
    C306   O842      0.69614      .   S
    C355   O843      0.69613      .   S
    C307   O843      0.69613      .   S
    C287   O844      0.76277      .   S
    C283   O844      0.76277      .   S
    C287   O845      0.54879      .   S
    C119   O845      0.54879      .   S
    C286   O846      0.76252      .   S
    C282   O846      0.76252      .   S
    C286   O847      0.54873      .   S
    C118   O847      0.54873      .   S
    C284   O848      0.76278      .   S
    C280   O848      0.76278      .   S
    C284   O849      0.54879      .   S
    C116   O849      0.54879      .   S
    C285   O850      0.76277      .   S
    C281   O850      0.76277      .   S
    C285   O851      0.54873      .   S
    C117   O851      0.54873      .   S
    C282   O852      0.55092      .   S
    C114   O852      0.55092      .   S
    C282   O853      0.72345      .   S
    C406   O853      0.72345      .   S
    C283   O854      0.55036      .   S
    C115   O854      0.55036      .   S
    C283   O855      0.72320      .   S
    C407   O855      0.72320      .   S
    C281   O856      0.55036      .   S
    C113   O856      0.55036      .   S
    C281   O857      0.72320      .   S
    C405   O857      0.72320      .   S
    C280   O858      0.55035      .   S
    C112   O858      0.55035      .   S
    C280   O859      0.72320      .   S
    C404   O859      0.72320      .   S
    C379   O860      0.63994      .   S
    C215   O860      0.63994      .   S
    C376   O861      0.63993      .   S
    C212   O861      0.63993      .   S
    C377   O862      0.63993      .   S
    C213   O862      0.63993      .   S
    C378   O863      0.63992      .   S
    C214   O863      0.63992      .   S
    C312   O864      0.71032      .   S
    C304   O864      0.71032      .   S
    C312   O865      0.70146      .   S
    C302   O865      0.70146      .   S
    C313   O866      0.71031      .   S
    C305   O866      0.71031      .   S
    C313   O867      0.70146      .   S
    C303   O867      0.70146      .   S
    C314   O868      0.71032      .   S
    C306   O868      0.71032      .   S
    C314   O869      0.70150      .   S
    C300   O869      0.70150  1_455   S
    C315   O870      0.71032      .   S
    C307   O870      0.71032      .   S
    C315   O871      0.70149      .   S
    C301   O871      0.70149  1_455   S
    C407   O872      0.48744      .   S
    C111   O872      0.48744      .   S
    C406   O873      0.48743      .   S
    C110   O873      0.48743      .   S
    C405   O874      0.48744      .   S
    C109   O874      0.48744      .   S
    C404   O875      0.48706      .   S
    C108   O875      0.48706      .   S
    C387   O876      0.63957      .   S
    C215   O876      0.63957      .   S
    C384   O877      0.63957      .   S
    C212   O877      0.63957      .   S
    C385   O878      0.63957      .   S
    C213   O878      0.63957      .   S
    C386   O879      0.63957      .   S
    C214   O879      0.63957      .   S
    C305   O880      0.69688      .   S
    C289   O880      0.69688      .   S
    C304   O881      0.69687      .   S
    C288   O881      0.69687      .   S
    C306   O882      0.69687      .   S
    C290   O882      0.69687      .   S
    C307   O883      0.69687      .   S
    C291   O883      0.69687      .   S
    C212   O884      0.74768      .   S
    C216   O884      0.74768      .   S
    C213   O885      0.74769      .   S
    C217   O885      0.74769      .   S
    C214   O886      0.74789      .   S
    C218   O886      0.74789      .   S
    C215   O887      0.74789      .   S
    C219   O887      0.74789      .   S
    C137   O888      0.54425      .   S
    C301   O888      0.54425      .   S
    C138   O889      0.54417      .   S
    C302   O889      0.54417      .   S
    C139   O890      0.54417      .   S
    C303   O890      0.54417      .   S
    C136   O891      0.54415      .   S
    C300   O891      0.54415      .   S
    C70    O892      0.54434  1_655   S
    C236   O892      0.54434      .   S
    C68    O893      0.54430      .   S
    C238   O893      0.54430      .   S
    C71    O894      0.54434  1_655   S
    C237   O894      0.54434      .   S
    C69    O895      0.54430      .   S
    C239   O895      0.54430      .   S
    C291   O896      0.54342      .   S
    C135   O896      0.54342      .   S
    C290   O897      0.54342      .   S
    C134   O897      0.54342      .   S
    C289   O898      0.54341      .   S
    C133   O898      0.54341      .   S
    C288   O899      0.54341      .   S
    C132   O899      0.54341      .   S
    C217   O900      0.70884      .   S
    C237   O900      0.70884      .   S
    C216   O901      0.70884      .   S
    C236   O901      0.70884      .   S
    C219   O902      0.70876      .   S
    C239   O902      0.70876      .   S
    C218   O903      0.70875      .   S
    C238   O903      0.70875      .   S
    C364   O904      0.97584      .   S
    C0     O904      0.97584      .   S
    C365   O905      0.97583      .   S
    C1     O905      0.97583      .   S
    C366   O906      0.97583      .   S
    C2     O906      0.97583      .   S
    C367   O907      0.97584      .   S
    C3     O907      0.97584      .   S
    C380   O908      0.97605      .   S
    C4     O908      0.97605      .   S
    C381   O909      0.97605      .   S
    C5     O909      0.97605      .   S
    C382   O910      0.97605      .   S
    C6     O910      0.97605      .   S
    C383   O911      0.97605      .   S
    C7     O911      0.97605      .   S
    C396   O912      0.97583      .   S
    C8     O912      0.97583      .   S
    C397   O913      0.97583      .   S
    C9     O913      0.97583      .   S
    C398   O914      0.97583      .   S
    C10    O914      0.97583      .   S
    C399   O915      0.97583      .   S
    C11    O915      0.97583      .   S
    C412   O916      0.97606      .   S
    C12    O916      0.97606      .   S
    C413   O917      0.97606      .   S
    C13    O917      0.97606      .   S
    C414   O918      0.97605      .   S
    C14    O918      0.97605      .   S
    C415   O919      0.97606      .   S
    C15    O919      0.97606      .   S
