# CIF file generated by openbabel 2.4.90, see http://openbabel.sf.net
data_I
_chemical_name_common ''
_cell_length_a 18.597
_cell_length_b 22.63
_cell_length_c 16.545
_cell_angle_alpha 107.033
_cell_angle_beta 90.063
_cell_angle_gamma 114.039
_space_group_name_H-M_alt 'P 1'
_space_group_name_Hall 'P 1'
loop_
    _symmetry_equiv_pos_as_xyz
    x,y,z
loop_
    _atom_site_label
    _atom_site_type_symbol
    _atom_site_fract_x
    _atom_site_fract_y
    _atom_site_fract_z
    _atom_site_occupancy
    N0      N    0.86981   0.78000   0.35053   1.000
    N1      N    0.86981   0.28000   0.35052   1.000
    N2      N    0.36981   0.78000   0.35053   1.000
    N3      N    0.63016   0.22003   0.64949   1.000
    N4      N    0.63016   0.72004   0.64944   1.000
    N5      N    0.40984   0.27932   0.85060   1.000
    N6      N    0.40983   0.77932   0.85060   1.000
    N7      N    0.90983   0.27932   0.85060   1.000
    N8      N    0.90983   0.77932   0.85060   1.000
    N9      N    0.36982   0.28000   0.35053   1.000
    N10     N    0.59014   0.22071   0.14942   1.000
    N11     N    0.09015   0.72072   0.14941   1.000
    N12     N    0.13017   0.72003   0.64947   1.000
    N13     N    0.13017   0.22003   0.64949   1.000
    N14     N    0.09015   0.22071   0.14941   1.000
    N15     N    0.59014   0.72072   0.14941   1.000
    Zr16    Zr   0.67112   0.49973   0.75013   1.000
    O17     O    0.57325   0.43824   0.63795   1.000
    O18     O    0.63499   0.56179   0.86211   1.000
    O19     O    0.56555   0.40419   0.63119   1.000
    O20     O    0.64237   0.38049   0.71520   1.000
    O21     O    0.56889   0.39923   0.77713   1.000
    O22     O    0.76177   0.61895   0.78499   1.000
    O23     O    0.66147   0.59570   0.86896   1.000
    O24     O    0.66951   0.60021   0.72302   1.000
    Zr25    Zr   0.17114   0.49973   0.75013   1.000
    O26     O    0.06889   0.39922   0.77713   1.000
    O27     O    0.06556   0.40418   0.63119   1.000
    O28     O    0.14238   0.38048   0.71520   1.000
    O29     O    0.16148   0.59569   0.86896   1.000
    O30     O    0.26178   0.61894   0.78499   1.000
    O31     O    0.16953   0.60021   0.72303   1.000
    O32     O    0.13501   0.56178   0.86212   1.000
    O33     O    0.07326   0.43823   0.63795   1.000
    Zr34    Zr   0.82884   0.50030   0.24988   1.000
    O35     O    0.83850   0.40434   0.13105   1.000
    O36     O    0.83045   0.39982   0.27698   1.000
    O37     O    0.73820   0.38109   0.21503   1.000
    O38     O    0.86497   0.43825   0.13790   1.000
    O39     O    0.92672   0.56180   0.36205   1.000
    O40     O    0.93108   0.60081   0.22288   1.000
    O41     O    0.93442   0.59585   0.36882   1.000
    O42     O    0.85759   0.61955   0.28482   1.000
    Zr43    Zr   0.32885   0.50031   0.24988   1.000
    O44     O    0.43443   0.59585   0.36881   1.000
    O45     O    0.43109   0.60081   0.22288   1.000
    O46     O    0.35761   0.61955   0.28482   1.000
    O47     O    0.33046   0.39983   0.27698   1.000
    O48     O    0.23821   0.38109   0.21501   1.000
    O49     O    0.33851   0.40434   0.13105   1.000
    O50     O    0.42673   0.56180   0.36205   1.000
    O51     O    0.36498   0.43826   0.13790   1.000
    Zr52    Zr   0.82884   0.00030   0.24988   1.000
    O53     O    0.83850   0.90434   0.13105   1.000
    O54     O    0.73820   0.88109   0.21503   1.000
    O55     O    0.83045   0.89983   0.27698   1.000
    O56     O    0.93109   0.10081   0.22288   1.000
    O57     O    0.85760   0.11955   0.28482   1.000
    O58     O    0.93443   0.09585   0.36882   1.000
    O59     O    0.92672   0.06180   0.36206   1.000
    O60     O    0.86497   0.93825   0.13789   1.000
    Zr61    Zr   0.32885   0.00031   0.24988   1.000
    O62     O    0.23821   0.88109   0.21501   1.000
    O63     O    0.33046   0.89983   0.27698   1.000
    O64     O    0.33851   0.90434   0.13106   1.000
    O65     O    0.42673   0.06180   0.36206   1.000
    O66     O    0.36498   0.93825   0.13789   1.000
    O67     O    0.35761   0.11955   0.28482   1.000
    O68     O    0.43443   0.09585   0.36882   1.000
    O69     O    0.43109   0.10081   0.22288   1.000
    Zr70    Zr   0.67112   0.99973   0.75013   1.000
    O71     O    0.57325   0.93824   0.63796   1.000
    O72     O    0.63500   0.06178   0.86212   1.000
    O73     O    0.76177   0.11894   0.78499   1.000
    O74     O    0.66952   0.10021   0.72303   1.000
    O75     O    0.66147   0.09569   0.86896   1.000
    O76     O    0.56889   0.89923   0.77713   1.000
    O77     O    0.56555   0.90419   0.63119   1.000
    O78     O    0.64237   0.88049   0.71519   1.000
    Zr79    Zr   0.17114   0.99973   0.75013   1.000
    O80     O    0.16149   0.09569   0.86896   1.000
    O81     O    0.16953   0.10021   0.72303   1.000
    O82     O    0.26178   0.11894   0.78499   1.000
    O83     O    0.14238   0.88049   0.71519   1.000
    O84     O    0.06889   0.89923   0.77713   1.000
    O85     O    0.06556   0.90419   0.63119   1.000
    O86     O    0.13501   0.06178   0.86212   1.000
    O87     O    0.07326   0.93824   0.63795   1.000
loop_
    _geom_bond_atom_site_label_1
    _geom_bond_atom_site_label_2
    _geom_bond_distance
    _geom_bond_site_symmetry_2
    _ccdc_geom_bond_type
    Zr16   O17       2.26055      .   S
    N9     O17       5.35696      .   S
    Zr16   O18       2.25906      .   S
    N15    O18       5.35384  1_554   S
    Zr16   O19       2.53823      .   S
    N9     O19       5.16661      .   S
    Zr16   O20       2.41081      .   S
    N3     O20       3.38136      .   S
    Zr16   O21       2.46201      .   S
    N5     O21       3.60429      .   S
    Zr16   O22       2.41528      .   S
    N8     O22       3.38754      .   S
    Zr16   O23       2.53585      .   S
    N15    O23       5.16483  1_554   S
    Zr16   O24       2.45466      .   S
    N4     O24       3.59435      .   S
    Zr25   O26       2.46207      .   S
    N7     O26       3.60440  1_655   S
    Zr25   O27       2.53829      .   S
    N1     O27       5.16679  1_655   S
    Zr25   O28       2.41080      .   S
    N13    O28       3.38131      .   S
    Zr25   O29       2.53585      .   S
    N11    O29       5.16483  1_554   S
    Zr25   O30       2.41530      .   S
    N6     O30       3.38755      .   S
    Zr25   O31       2.45463      .   S
    N12    O31       3.59420      .   S
    Zr25   O32       2.25906      .   S
    N11    O32       5.35383  1_554   S
    Zr25   O33       2.26061      .   S
    N1     O33       5.35713  1_655   S
    Zr34   O35       2.53592      .   S
    N7     O35       5.16478  1_556   S
    Zr34   O36       2.45462      .   S
    N1     O36       3.59405      .   S
    Zr34   O37       2.41530      .   S
    N10    O37       3.38754      .   S
    Zr34   O38       2.25908      .   S
    N7     O38       5.35385  1_556   S
    Zr34   O39       2.26054      .   S
    N12    O39       5.35697  1_455   S
    Zr34   O40       2.46206      .   S
    N11    O40       3.60443  1_455   S
    Zr34   O41       2.53825      .   S
    N12    O41       5.16658  1_455   S
    Zr34   O42       2.41079      .   S
    N0     O42       3.38131      .   S
    Zr43   O44       2.53814      .   S
    N4     O44       5.16619      .   S
    Zr43   O45       2.46198      .   S
    N15    O45       3.60427      .   S
    Zr43   O46       2.41077      .   S
    N2     O46       3.38130      .   S
    Zr43   O47       2.45464      .   S
    N9     O47       3.59406      .   S
    Zr43   O48       2.41531      .   S
    N14    O48       3.38758      .   S
    Zr43   O49       2.53592      .   S
    N5     O49       5.16477  1_556   S
    Zr43   O50       2.26041      .   S
    N4     O50       5.35661      .   S
    Zr43   O51       2.25907      .   S
    N5     O51       5.35383  1_556   S
    Zr52   O53       2.53587  1_545   S
    N8     O53       5.16477  1_556   S
    Zr52   O54       2.41527  1_545   S
    N15    O54       3.38751      .   S
    Zr52   O55       2.45453  1_545   S
    N0     O55       3.59403      .   S
    Zr52   O56       2.46205      .   S
    N14    O56       3.60443  1_455   S
    Zr52   O57       2.41072      .   S
    N1     O57       3.38123      .   S
    Zr52   O58       2.53828      .   S
    N13    O58       5.16676  1_455   S
    Zr52   O59       2.26059      .   S
    N13    O59       5.35713  1_455   S
    Zr52   O60       2.25910  1_545   S
    N8     O60       5.35375  1_556   S
    Zr61   O62       2.41528  1_545   S
    N11    O62       3.38757      .   S
    Zr61   O63       2.45453  1_545   S
    N2     O63       3.59401      .   S
    Zr61   O64       2.53581  1_545   S
    N6     O64       5.16481  1_556   S
    Zr61   O65       2.26054      .   S
    N3     O65       5.35701      .   S
    Zr61   O66       2.25905  1_545   S
    N6     O66       5.35376  1_556   S
    Zr61   O67       2.41074      .   S
    N9     O67       3.38127      .   S
    Zr61   O68       2.53826      .   S
    N3     O68       5.16660      .   S
    Zr61   O69       2.46196      .   S
    N10    O69       3.60426      .   S
    Zr70   O71       2.26055      .   S
    N2     O71       5.35698      .   S
    Zr70   O72       2.25902  1_565   S
    N10    O72       5.35379  1_554   S
    Zr70   O73       2.41525  1_565   S
    N7     O73       3.38753      .   S
    Zr70   O74       2.45453  1_565   S
    N3     O74       3.59400      .   S
    Zr70   O75       2.53580  1_565   S
    N10    O75       5.16481  1_554   S
    Zr70   O76       2.46200      .   S
    N6     O76       3.60428      .   S
    Zr70   O77       2.53823      .   S
    N2     O77       5.16662      .   S
    Zr70   O78       2.41072      .   S
    N4     O78       3.38127      .   S
    Zr79   O80       2.53581  1_565   S
    N14    O80       5.16479  1_554   S
    Zr79   O81       2.45454  1_565   S
    N13    O81       3.59401      .   S
    Zr79   O82       2.41527  1_565   S
    N5     O82       3.38755      .   S
    Zr79   O83       2.41074      .   S
    N12    O83       3.38126      .   S
    Zr79   O84       2.46204      .   S
    N8     O84       3.60438  1_655   S
    Zr79   O85       2.53828      .   S
    N0     O85       5.16680  1_655   S
    Zr79   O86       2.25902  1_565   S
    N14    O86       5.35378  1_554   S
    Zr79   O87       2.26063      .   S
    N0     O87       5.35713  1_655   S
