# CIF file generated by openbabel 2.4.90, see http://openbabel.sf.net
data_I
_chemical_name_common 'CaH4(C3O2)3'
_cell_length_a 6.82
_cell_length_b 9.31423
_cell_length_c 10.1835
_cell_angle_alpha 67.1928
_cell_angle_beta 81.436
_cell_angle_gamma 73.461
_space_group_name_H-M_alt 'P 1'
_space_group_name_Hall 'P 1'
loop_
    _symmetry_equiv_pos_as_xyz
    x,y,z
loop_
    _atom_site_label
    _atom_site_type_symbol
    _atom_site_fract_x
    _atom_site_fract_y
    _atom_site_fract_z
    _atom_site_occupancy
    Ca0     Ca   0.24482   0.45520   0.61812   1.000
    Ca1     Ca   0.75515   0.54483   0.38187   1.000
    H2      H    0.24998   0.27303   0.94651   1.000
    H3      H    0.22241   0.47739   0.09853   1.000
    H4      H    0.24411   0.91274   0.74018   1.000
    H5      H    0.27451   0.89302   0.16728   1.000
    H6      H    0.75002   0.72701   0.05349   1.000
    H7      H    0.77758   0.52264   0.90147   1.000
    H8      H    0.75589   0.08729   0.25981   1.000
    H9      H    0.72549   0.10701   0.83270   1.000
    C10     C    0.25013   0.67567   0.14952   1.000
    C11     C    0.23436   0.60141   0.05684   1.000
    C12     C    0.23739   0.68587   0.90923   1.000
    C13     C    0.24599   0.84703   0.85492   1.000
    C14     C    0.25568   0.92289   0.94768   1.000
    C15     C    0.26257   0.83561   0.09490   1.000
    C16     C    0.25378   0.58804   0.30729   1.000
    C17     C    0.23037   0.60573   0.80820   1.000
    C18     C    0.25723   0.09554   0.89018   1.000
    C19     C    0.74984   0.32437   0.85046   1.000
    C20     C    0.76561   0.39862   0.94315   1.000
    C21     C    0.76259   0.31417   0.09076   1.000
    C22     C    0.75399   0.15301   0.14506   1.000
    C23     C    0.74431   0.07714   0.05231   1.000
    C24     C    0.73741   0.16442   0.90508   1.000
    C25     C    0.74620   0.41200   0.69270   1.000
    C26     C    0.76962   0.39430   0.19179   1.000
    C27     C    0.74275   0.90450   0.10982   1.000
    O28     O    0.38689   0.59978   0.37613   1.000
    O29     O    0.12282   0.50627   0.37183   1.000
    O30     O    0.22511   0.45673   0.85896   1.000
    O31     O    0.23105   0.68480   0.67527   1.000
    O32     O    0.25606   0.15360   0.99049   1.000
    O33     O    0.25838   0.17703   0.76011   1.000
    O34     O    0.61309   0.40026   0.62386   1.000
    O35     O    0.87716   0.49376   0.62816   1.000
    O36     O    0.77487   0.54330   0.14104   1.000
    O37     O    0.76894   0.31522   0.32472   1.000
    O38     O    0.74395   0.84644   0.00951   1.000
    O39     O    0.74160   0.82302   0.23989   1.000
loop_
    _geom_bond_atom_site_label_1
    _geom_bond_atom_site_label_2
    _geom_bond_distance
    _geom_bond_site_symmetry_2
    _ccdc_geom_bond_type
    O38    H6        1.01622      .   S
    O38    C27       1.32638      .   S
    C23    C27       1.48544  1_545   S
    C23    C22       1.39950      .   S
    C23    C24       1.40187  1_554   S
    C11    H3        1.08831      .   S
    C11    C10       1.39979      .   S
    C11    C12       1.40073  1_554   S
    C21    C22       1.39977      .   S
    C21    C26       1.49942      .   S
    C21    C20       1.40070  1_554   S
    C15    C10       1.39692      .   S
    C15    H5        1.08814      .   S
    C15    C14       1.40182  1_554   S
    C27    O39       1.24561      .   S
    O36    C26       1.28892      .   S
    C22    H8        1.08890      .   S
    C10    C16       1.49393      .   S
    C26    O37       1.26580      .   S
    O39    Ca1       2.41075      .   S
    C16    O29       1.27826      .   S
    C16    O28       1.27791      .   S
    O37    Ca1       2.39911      .   S
    Ca0    O31       2.39904      .   S
    Ca0    O33       2.41061      .   S
    O34    C25       1.27791      .   S
    O35    C25       1.27826      .   S
    O31    C17       1.26580      .   S
    C25    C19       1.49390      .   S
    H4     C13       1.08889      .   S
    O33    C18       1.24562      .   S
    C17    O30       1.28892      .   S
    C17    C12       1.49940      .   S
    H9     C24       1.08814      .   S
    C19    C24       1.39694      .   S
    C19    C20       1.39981      .   S
    C13    C12       1.39978      .   S
    C13    C14       1.39951      .   S
    C18    C14       1.48554  1_545   S
    C18    O32       1.32637      .   S
    H7     C20       1.08829      .   S
    H2     O32       1.01622      .   S
    O28    Ca0       2.50680      .   S
    O28    Ca1       2.42117      .   S
    O29    Ca0       2.58464      .   S
    O29    Ca1       2.42208  1_455   S
    O30    Ca0       2.44155      .   S
    O34    Ca0       2.42119      .   S
    O34    Ca1       2.50677      .   S
    O35    Ca0       2.42202  1_655   S
    O35    Ca1       2.58466      .   S
    O36    Ca1       2.44149      .   S
