# CIF file generated by openbabel 2.4.90, see http://openbabel.sf.net
data_I
_chemical_name_common ''
_cell_length_a 7.4575
_cell_length_b 7.4915
_cell_length_c 13.05
_cell_angle_alpha 88.595
_cell_angle_beta 89.968
_cell_angle_gamma 88.302
_space_group_name_H-M_alt 'P 1'
_space_group_name_Hall 'P 1'
loop_
    _symmetry_equiv_pos_as_xyz
    x,y,z
loop_
    _atom_site_label
    _atom_site_type_symbol
    _atom_site_fract_x
    _atom_site_fract_y
    _atom_site_fract_z
    _atom_site_occupancy
    Zn0     Zn   0.00052   0.98531   0.24923   1.000
    Ni1     Ni   0.99621   0.49999   0.00211   1.000
    Ni2     Ni   0.49946   0.00385   0.49996   1.000
    C3      C    0.99693   0.67955   0.90372   1.000
    C4      C    0.99394   0.33129   0.90244   1.000
    C5      C    0.32540   0.00131   0.59909   1.000
    C6      C    0.67534   0.00668   0.59874   1.000
    C7      C    0.00311   0.32035   0.09632   1.000
    C8      C    0.00616   0.66859   0.09767   1.000
    C9      C    0.67467   0.99879   0.40090   1.000
    C10     C    0.32471   0.99352   0.40131   1.000
    Zn11    Zn   0.99953   0.01469   0.75080   1.000
    Ts12    Ts   0.00104   0.05838   0.21882   1.000
    Ts13    Ts   0.00260   0.91613   0.21954   1.000
    Ts14    Ts   0.92960   0.98898   0.27907   1.000
    Ts15    Ts   0.07107   0.98556   0.27926   1.000
    Ts16    Ts   0.99733   0.71816   0.88315   1.000
    Ts17    Ts   0.99378   0.29488   0.88161   1.000
    Ts18    Ts   0.28770   0.00213   0.61979   1.000
    Ts19    Ts   0.71284   0.00918   0.61941   1.000
    Ts20    Ts   0.00276   0.28174   0.11688   1.000
    Ts21    Ts   0.00636   0.70498   0.11851   1.000
    Ts22    Ts   0.71236   0.99796   0.38019   1.000
    Ts23    Ts   0.28719   0.99104   0.38065   1.000
    Ts24    Ts   0.99906   0.94158   0.78121   1.000
    Ts25    Ts   0.99750   0.08382   0.78052   1.000
    Ts26    Ts   0.07046   0.01105   0.72094   1.000
    Ts27    Ts   0.92896   0.01452   0.72079   1.000
loop_
    _geom_bond_atom_site_label_1
    _geom_bond_atom_site_label_2
    _geom_bond_distance
    _geom_bond_site_symmetry_2
    _ccdc_geom_bond_type
    Ni1    C7        1.79999  1_655   S
    Ni1    C8        1.79970  1_655   S
    Ni1    C4        1.83611  1_554   S
    Ni1    C3        1.83683  1_554   S
    C9     Ni2       1.83772  1_565   S
    C10    Ni2       1.83697  1_565   S
    Ni2    C6        1.84053      .   S
    Ni2    C5        1.83231      .   S
    Zn0    Ts12      0.66826  1_565   S
    Zn0    Ts13      0.65439      .   S
    Zn0    Ts14      0.65705  1_455   S
    Zn0    Ts15      0.65630      .   S
    C3     Ts16      0.38978      .   S
    C4     Ts17      0.38978      .   S
    C5     Ts18      0.38984      .   S
    C6     Ts19      0.38981      .   S
    C7     Ts20      0.38978      .   S
    C8     Ts21      0.38978      .   S
    C9     Ts22      0.38984      .   S
    C10    Ts23      0.38981      .   S
    Zn11   Ts24      0.66849  1_545   S
    Zn11   Ts25      0.65437      .   S
    Zn11   Ts26      0.65715  1_655   S
    Zn11   Ts27      0.65626      .   S
