# CIF file generated by openbabel 2.4.90, see http://openbabel.sf.net
data_I
_chemical_name_common ''
_cell_length_a 7.3135
_cell_length_b 19.286
_cell_length_c 21.745
_cell_angle_alpha 90.005
_cell_angle_beta 90.014
_cell_angle_gamma 91.651
_space_group_name_H-M_alt 'P 1'
_space_group_name_Hall 'P 1'
loop_
    _symmetry_equiv_pos_as_xyz
    x,y,z
loop_
    _atom_site_label
    _atom_site_type_symbol
    _atom_site_fract_x
    _atom_site_fract_y
    _atom_site_fract_z
    _atom_site_occupancy
    H0      H    0.65915   0.72701   0.61619   1.000
    H1      H    0.76137   0.72296   0.50705   1.000
    H2      H    0.21289   0.76162   0.44687   1.000
    H3      H    0.10842   0.76428   0.55555   1.000
    H4      H    0.95700   0.63569   0.62181   1.000
    H5      H    0.06725   0.52705   0.57703   1.000
    H6      H    0.76324   0.40955   0.71527   1.000
    H7      H    0.64965   0.51868   0.75868   1.000
    H8      H    0.96440   0.85503   0.62174   1.000
    H9      H    0.08902   0.96414   0.57212   1.000
    H10     H    0.81002   0.08514   0.70795   1.000
    H11     H    0.68750   0.97803   0.75737   1.000
    H12     H    0.42601   0.06178   0.59241   1.000
    H13     H    0.65006   0.05011   0.56119   1.000
    H14     H    0.70970   0.94002   0.51195   1.000
    H15     H    0.52694   0.87611   0.50945   1.000
    H16     H    0.25056   0.52416   0.48366   1.000
    H17     H    0.34891   0.60837   0.50090   1.000
    H18     H    0.53370   0.44293   0.59857   1.000
    H19     H    0.35907   0.42594   0.54227   1.000
    H20     H    0.84119   0.27267   0.11536   1.000
    H21     H    0.73886   0.27660   0.00000   1.000
    H22     H    0.28667   0.23712   0.94617   1.000
    H23     H    0.39137   0.23461   0.05485   1.000
    H24     H    0.54279   0.36390   0.12064   1.000
    H25     H    0.43141   0.47408   0.07742   1.000
    H26     H    0.73729   0.59005   0.21401   1.000
    H27     H    0.85054   0.48091   0.25749   1.000
    H28     H    0.53345   0.14438   0.12121   1.000
    H29     H    0.41084   0.03618   0.07275   1.000
    H30     H    0.68930   0.91475   0.20811   1.000
    H31     H    0.81291   0.02214   0.25681   1.000
    H32     H    0.06718   0.93587   0.09190   1.000
    H33     H    0.84600   0.94734   0.05870   1.000
    H34     H    0.78688   0.05833   0.01092   1.000
    H35     H    0.96729   0.12321   0.01163   1.000
    H36     H    0.25231   0.47566   0.98191   1.000
    H37     H    0.15535   0.39159   0.00037   1.000
    H38     H    0.97312   0.55761   0.09767   1.000
    H39     H    0.14516   0.57458   0.04041   1.000
    H40     H    0.34111   0.27280   0.38417   1.000
    H41     H    0.23944   0.27677   0.49336   1.000
    H42     H    0.78827   0.23819   0.55321   1.000
    H43     H    0.89226   0.23572   0.44446   1.000
    H44     H    0.04409   0.36341   0.37862   1.000
    H45     H    0.93139   0.47463   0.42144   1.000
    H46     H    0.23575   0.59068   0.28689   1.000
    H47     H    0.34910   0.48211   0.24226   1.000
    H48     H    0.03347   0.14423   0.37980   1.000
    H49     H    0.91150   0.03582   0.42795   1.000
    H50     H    0.19032   0.91498   0.29232   1.000
    H51     H    0.31336   0.02258   0.24390   1.000
    H52     H    0.57396   0.93780   0.40764   1.000
    H53     H    0.34994   0.94950   0.43889   1.000
    H54     H    0.29036   0.05960   0.48809   1.000
    H55     H    0.47317   0.12348   0.49061   1.000
    H56     H    0.75609   0.47523   0.51780   1.000
    H57     H    0.65741   0.39112   0.50039   1.000
    H58     H    0.47237   0.55647   0.40275   1.000
    H59     H    0.64717   0.57378   0.45890   1.000
    H60     H    0.15878   0.72715   0.88461   1.000
    H61     H    0.26115   0.72323   0.99377   1.000
    H62     H    0.71318   0.76283   0.05419   1.000
    H63     H    0.60867   0.76523   0.94549   1.000
    H64     H    0.45672   0.63588   0.87948   1.000
    H65     H    0.56815   0.52570   0.92268   1.000
    H66     H    0.26243   0.40976   0.78603   1.000
    H67     H    0.14917   0.51892   0.74255   1.000
    H68     H    0.46576   0.85556   0.87904   1.000
    H69     H    0.58820   0.96371   0.92763   1.000
    H70     H    0.31070   0.08526   0.79213   1.000
    H71     H    0.18723   0.97792   0.74331   1.000
    H72     H    0.93263   0.06391   0.90820   1.000
    H73     H    0.15408   0.05275   0.94160   1.000
    H74     H    0.21305   0.94164   0.98922   1.000
    H75     H    0.03258   0.87679   0.98839   1.000
    H76     H    0.74774   0.52419   0.01817   1.000
    H77     H    0.84465   0.60830   0.99977   1.000
    H78     H    0.02694   0.44217   0.90242   1.000
    H79     H    0.85499   0.42534   0.95956   1.000
    C80     C    0.37476   0.74560   0.59523   1.000
    C81     C    0.56081   0.73426   0.57907   1.000
    C82     C    0.61858   0.73214   0.51801   1.000
    C83     C    0.49322   0.74195   0.47054   1.000
    C84     C    0.30972   0.75369   0.48414   1.000
    C85     C    0.25188   0.75527   0.54517   1.000
    C86     C    0.79926   0.58739   0.69574   1.000
    C87     C    0.91690   0.58636   0.64329   1.000
    O88     O    0.74227   0.15023   0.22129   1.000
    O89     O    0.02418   0.03367   0.05840   1.000
    O90     O    0.06948   0.47071   0.05568   1.000
    O91     O    0.67904   0.25315   0.34696   1.000
    C92     C    0.97833   0.52463   0.61851   1.000
    C93     C    0.92521   0.46097   0.64491   1.000
    C94     C    0.80688   0.45915   0.69526   1.000
    C95     C    0.74456   0.52101   0.71986   1.000
    C96     C    0.82085   0.90662   0.69535   1.000
    C97     C    0.93336   0.90533   0.64164   1.000
    C98     C    0.00243   0.96664   0.61287   1.000
    C99     C    0.95739   0.03055   0.63789   1.000
    C100    C    0.84543   0.03463   0.68966   1.000
    C101    C    0.77816   0.97400   0.71763   1.000
    C102    C    0.50263   0.03882   0.55447   1.000
    C103    C    0.56047   0.93188   0.50665   1.000
    C104    C    0.37744   0.55298   0.49673   1.000
    C105    C    0.48328   0.45753   0.55296   1.000
    C106    C    0.12535   0.25381   0.09451   1.000
    C107    C    0.93942   0.26526   0.07824   1.000
    C108    C    0.88158   0.26731   0.01718   1.000
    C109    C    0.00663   0.25726   0.96983   1.000
    C110    C    0.19002   0.24528   0.98344   1.000
    C111    C    0.24798   0.24379   0.04446   1.000
    C112    C    0.70071   0.41220   0.19457   1.000
    C113    C    0.58305   0.41324   0.14210   1.000
    C114    C    0.52181   0.47497   0.11728   1.000
    C115    C    0.57516   0.53864   0.14365   1.000
    C116    C    0.69349   0.54045   0.19402   1.000
    C117    C    0.75559   0.47858   0.21867   1.000
    C118    C    0.67845   0.09320   0.19473   1.000
    C119    C    0.56477   0.09420   0.14128   1.000
    C120    C    0.49726   0.03354   0.11355   1.000
    C121    C    0.54058   0.96895   0.13813   1.000
    C122    C    0.65360   0.96516   0.18967   1.000
    C123    C    0.72147   0.02595   0.21724   1.000
    C124    C    0.99361   0.95961   0.05382   1.000
    C125    C    0.93629   0.06736   0.00741   1.000
    C126    C    0.12627   0.44689   0.99586   1.000
    C127    C    0.02190   0.54282   0.05187   1.000
    C128    C    0.62567   0.25437   0.40495   1.000
    C129    C    0.43968   0.26562   0.42123   1.000
    C130    C    0.38220   0.26766   0.48232   1.000
    C131    C    0.50780   0.25782   0.52972   1.000
    C132    C    0.69126   0.24613   0.51600   1.000
    C133    C    0.74882   0.24467   0.45493   1.000
    C134    C    0.20070   0.41261   0.30485   1.000
    C135    C    0.08375   0.41299   0.35750   1.000
    C136    C    0.02247   0.47439   0.38296   1.000
    C137    C    0.07504   0.53837   0.35707   1.000
    C138    C    0.19259   0.54082   0.30651   1.000
    C139    C    0.25478   0.47929   0.28123   1.000
    C140    C    0.17871   0.09337   0.30618   1.000
    C141    C    0.06506   0.09412   0.35962   1.000
    C142    C    0.99793   0.03335   0.38716   1.000
    C143    C    0.04148   0.96885   0.36247   1.000
    C144    C    0.15440   0.96530   0.31089   1.000
    C145    C    0.22195   0.02622   0.28348   1.000
    C146    C    0.49739   0.96078   0.44559   1.000
    C147    C    0.43959   0.06771   0.49341   1.000
    C148    C    0.62915   0.44651   0.50465   1.000
    C149    C    0.52317   0.54200   0.44835   1.000
    C150    C    0.87474   0.74597   0.90589   1.000
    C151    C    0.06061   0.73462   0.92173   1.000
    C152    C    0.11846   0.73257   0.98279   1.000
    C153    C    0.99325   0.74265   0.03061   1.000
    C154    C    0.80989   0.75462   0.01695   1.000
    C155    C    0.75204   0.75605   0.95592   1.000
    C156    C    0.29897   0.58761   0.80550   1.000
    C157    C    0.41649   0.58655   0.85800   1.000
    C158    C    0.47776   0.52482   0.88281   1.000
    C159    C    0.42445   0.46116   0.85642   1.000
    C160    C    0.30616   0.45936   0.80603   1.000
    C161    C    0.24406   0.52123   0.78139   1.000
    C162    C    0.32130   0.90680   0.80544   1.000
    C163    C    0.43458   0.90576   0.85898   1.000
    C164    C    0.50202   0.96639   0.88678   1.000
    C165    C    0.45896   0.03100   0.86219   1.000
    C166    C    0.34622   0.03484   0.81058   1.000
    C167    C    0.27843   0.97407   0.78295   1.000
    C168    C    0.00646   0.04047   0.94645   1.000
    C169    C    0.06363   0.93263   0.99269   1.000
    C170    C    0.87377   0.55299   0.00423   1.000
    C171    C    0.97821   0.45714   0.94813   1.000
    Cl172   Cl   0.56632   0.73983   0.39392   1.000
    Cl173   Cl   0.00520   0.38469   0.61140   1.000
    Cl174   Cl   0.04248   0.10783   0.60295   1.000
    Cl175   Cl   0.93363   0.25933   0.89310   1.000
    Cl176   Cl   0.49497   0.61600   0.11284   1.000
    Cl177   Cl   0.45619   0.89241   0.10336   1.000
    Cl178   Cl   0.43506   0.25984   0.60637   1.000
    Cl179   Cl   0.99417   0.61657   0.38596   1.000
    Cl180   Cl   0.95773   0.89216   0.39698   1.000
    Cl181   Cl   0.06648   0.74063   0.10687   1.000
    Cl182   Cl   0.50474   0.38379   0.88718   1.000
    Cl183   Cl   0.54334   0.10750   0.89702   1.000
    O184    O    0.32110   0.74694   0.65319   1.000
    O185    O    0.74247   0.64537   0.72009   1.000
    O186    O    0.75790   0.84975   0.72236   1.000
    O187    O    0.46869   0.96464   0.55732   1.000
    O188    O    0.43706   0.52980   0.55641   1.000
    O189    O    0.17920   0.25265   0.15245   1.000
    O190    O    0.75745   0.35420   0.21890   1.000
    O191    O    0.25763   0.35494   0.27996   1.000
    O192    O    0.24206   0.15052   0.27974   1.000
    O193    O    0.53138   0.03494   0.44274   1.000
    O194    O    0.56996   0.46979   0.44496   1.000
    O195    O    0.82099   0.74711   0.84794   1.000
    O196    O    0.24230   0.64561   0.78116   1.000
    O197    O    0.25770   0.84980   0.77878   1.000
    O198    O    0.97583   0.96620   0.94187   1.000
    O199    O    0.93055   0.52925   0.94439   1.000
loop_
    _geom_bond_atom_site_label_1
    _geom_bond_atom_site_label_2
    _geom_bond_distance
    _geom_bond_site_symmetry_2
    _ccdc_geom_bond_type
    H21    C108      1.12765      .   S
    H37    C126      1.09799  1_554   S
    C170   H76       1.10473      .   S
    C170   C127      1.51556  1_655   S
    C170   O199      1.44442  1_554   S
    C170   H77       1.09799  1_554   S
    C125   H34       1.10414      .   S
    C125   H35       1.09812      .   S
    C125   O89       1.44506  1_655   S
    C125   C168      1.51822  1_654   S
    C154   C153      1.39911      .   S
    C154   H62       1.08986      .   S
    C154   C155      1.39352  1_554   S
    C108   C107      1.39444      .   S
    C108   C109      1.39445  1_654   S
    C153   Cl181     1.74321  1_655   S
    C153   C152      1.40289  1_654   S
    H39    C127      1.10375      .   S
    C111   H23       1.09210      .   S
    C111   C106      1.42709      .   S
    C111   C110      1.39354  1_554   S
    C127   O90       1.44565      .   S
    C127   H38       1.09849  1_455   S
    C124   O89       1.44267  1_665   S
    C124   H33       1.10365      .   S
    C124   H32       1.09506  1_655   S
    C124   C169      1.52173  1_654   S
    O90    C126      1.44436  1_554   S
    H29    C120      1.09117      .   S
    H25    C114      1.08993      .   S
    C107   C106      1.42832  1_655   S
    C107   H20       1.09268      .   S
    C106   O189      1.32033      .   S
    Cl177  C121      1.75448      .   S
    Cl176  C115      1.75189      .   S
    C120   C121      1.40019  1_545   S
    C120   C119      1.39375      .   S
    C114   C113      1.39285      .   S
    C114   C115      1.40030      .   S
    H24    C113      1.09254      .   S
    H28    C119      1.09203      .   S
    C121   C122      1.39568      .   S
    C119   C118      1.42930      .   S
    C113   C112      1.42927      .   S
    C115   C116      1.39564      .   S
    C122   H30       1.09025      .   S
    C122   C123      1.39512  1_565   S
    C116   H26       1.09039      .   S
    C116   C117      1.39584      .   S
    C112   C117      1.43011      .   S
    C112   O190      1.31527      .   S
    C118   C123      1.42978      .   S
    C118   O88       1.31565      .   S
    C123   H31       1.09350      .   S
    C117   H27       1.09308      .   S
    H47    C139      1.09314      .   S
    H51    C145      1.09349      .   S
    O192   C140      1.31554      .   S
    O191   C134      1.31542      .   S
    C139   C134      1.43004      .   S
    C139   C138      1.39588      .   S
    C145   C140      1.42988      .   S
    C145   C144      1.39518  1_545   S
    H46    C138      1.09037      .   S
    H50    C144      1.09025      .   S
    C134   C135      1.42931      .   S
    C140   C141      1.42931      .   S
    C138   C137      1.39572      .   S
    C144   C143      1.39570      .   S
    O91    C128      1.32062      .   S
    C137   C136      1.40025      .   S
    C137   Cl179     1.75222  1_455   S
    C135   H44       1.09248      .   S
    C135   C136      1.39290      .   S
    C141   H48       1.09205      .   S
    C141   C142      1.39283  1_455   S
    C143   C142      1.40006  1_465   S
    C143   Cl180     1.75323  1_455   S
    C136   H45       1.06973  1_455   S
    H40    C129      1.09262      .   S
    C142   H49       1.09112      .   S
    Cl172  C83       1.75059      .   S
    H58    C149      1.09778      .   S
    C128   C129      1.42826      .   S
    C128   C133      1.42713      .   S
    H52    C146      1.09791      .   S
    C129   C130      1.39434      .   S
    H53    C146      1.10351      .   S
    O193   C146      1.44602  1_545   S
    O193   C147      1.44539      .   S
    H43    C133      1.09208      .   S
    O194   C149      1.44561      .   S
    O194   C148      1.44395      .   S
    C146   C103      1.51677      .   S
    H2     C84       1.08985      .   S
    C149   H59       1.10379      .   S
    C149   C104      1.51680      .   S
    C133   C132      1.39361      .   S
    C83    C84       1.39911      .   S
    C83    C82       1.39695      .   S
    C130   H41       1.09058      .   S
    C130   C131      1.39696      .   S
    H16    C104      1.10494      .   S
    C84    C85       1.39352      .   S
    H54    C147      1.10418      .   S
    H55    C147      1.09803      .   S
    C147   C102      1.51677      .   S
    C104   H17       1.09797      .   S
    C104   O188      1.44417      .   S
    H57    C148      1.09789      .   S
    C148   H56       1.10481      .   S
    C148   C105      1.51664      .   S
    C103   H15       1.09796      .   S
    C103   H14       1.10420      .   S
    C103   O187      1.44532      .   S
    H1     C82       1.09059      .   S
    C132   C131      1.39911      .   S
    C132   H42       1.08985      .   S
    C82    C81       1.39439      .   S
    C131   Cl178     1.75055      .   S
    H19    C105      1.10377      .   S
    C85    H3        1.09207      .   S
    C85    C80       1.42714      .   S
    C105   O188      1.44562      .   S
    C105   H18       1.09760      .   S
    C102   O187      1.44612  1_545   S
    C102   H13       1.10350      .   S
    C102   H12       1.09791      .   S
    H9     C98       1.09111      .   S
    H5     C92       1.11222  1_455   S
    C81    C80       1.42834      .   S
    C81    H0        1.09268      .   S
    C80    O184      1.32047      .   S
    Cl174  C99       1.76981  1_455   S
    Cl173  C93       1.75688  1_455   S
    C98    C99       1.39545  1_465   S
    C98    C97       1.41795  1_455   S
    C92    C87       1.39283      .   S
    C92    C93       1.40030      .   S
    H8     C97       1.09203      .   S
    H4     C87       1.09252      .   S
    C99    C100      1.39578      .   S
    C97    C96       1.42932      .   S
    C87    C86       1.42922      .   S
    C93    C94       1.39565      .   S
    C100   H10       1.09024      .   S
    C100   C101      1.39511  1_545   S
    C94    H6        1.09038      .   S
    C94    C95       1.39581      .   S
    C96    C101      1.42980      .   S
    C96    O186      1.31561      .   S
    C86    C95       1.43004      .   S
    C86    O185      1.31535      .   S
    C101   H11       1.09339      .   S
    C95    H7        1.09309      .   S
    H67    C161      1.09314      .   S
    H71    C167      1.09351      .   S
    O197   C162      1.31575      .   S
    O196   C156      1.31525      .   S
    C161   C156      1.43013      .   S
    C161   C160      1.39586      .   S
    C167   C162      1.42974      .   S
    C167   C166      1.39514  1_565   S
    H66    C160      1.09036      .   S
    H70    C166      1.09025      .   S
    C162   C163      1.42925      .   S
    C156   C157      1.42928      .   S
    C160   C159      1.39563      .   S
    C166   C165      1.39564      .   S
    O195   C150      1.32028      .   S
    C159   C158      1.40031      .   S
    C159   Cl182     1.75184      .   S
    C157   H64       1.09253      .   S
    C157   C158      1.39278      .   S
    C163   H68       1.09201      .   S
    C163   C164      1.39366      .   S
    C165   C164      1.40023  1_545   S
    C165   Cl183     1.75452      .   S
    C158   H65       1.08994      .   S
    H60    C151      1.09266      .   S
    C164   H69       1.09117      .   S
    Cl175  C109      1.75256  1_655   S
    H78    C171      1.09735  1_455   S
    C150   C151      1.42523  1_655   S
    C150   C155      1.42718      .   S
    H72    C168      1.09617  1_655   S
    C151   C152      1.39440      .   S
    H73    C168      1.10364      .   S
    O198   C168      1.44688  1_665   S
    O198   C169      1.44086  1_655   S
    O199   C171      1.44564      .   S
    H63    C155      1.09211      .   S
    H22    C110      1.08986      .   S
    C171   H79       1.10374      .   S
    C171   C126      1.51684  1_655   S
    C109   C110      1.39909      .   S
    H36    C126      1.10474      .   S
    C152   H61       1.09047      .   S
    H75    C169      1.09812      .   S
    H74    C169      1.10414      .   S
