# CIF file generated by openbabel 2.4.90, see http://openbabel.sf.net
data_I
_chemical_name_common ''
_cell_length_a 7.3135
_cell_length_b 19.286
_cell_length_c 21.745
_cell_angle_alpha 90.005
_cell_angle_beta 90.014
_cell_angle_gamma 91.651
_space_group_name_H-M_alt 'P 1'
_space_group_name_Hall 'P 1'
loop_
    _symmetry_equiv_pos_as_xyz
    x,y,z
loop_
    _atom_site_label
    _atom_site_type_symbol
    _atom_site_fract_x
    _atom_site_fract_y
    _atom_site_fract_z
    _atom_site_occupancy
    Zr0     Zr   0.41699   0.88499   0.66525   1.000
    Zr1     Zr   0.39925   0.60825   0.66547   1.000
    Zr2     Zr   0.53246   0.74736   0.76906   1.000
    Zr3     Zr   0.08301   0.11451   0.16546   1.000
    Zr4     Zr   0.10157   0.39149   0.16459   1.000
    Zr5     Zr   0.96766   0.25277   0.26834   1.000
    Zr6     Zr   0.58359   0.11499   0.33512   1.000
    Zr7     Zr   0.60097   0.39180   0.33488   1.000
    Zr8     Zr   0.46744   0.25259   0.23149   1.000
    Zr9     Zr   0.91768   0.88524   0.83545   1.000
    Zr10    Zr   0.89917   0.60847   0.83565   1.000
    Zr11    Zr   0.03248   0.74729   0.73176   1.000
    N12     N    0.93652   0.74439   0.97056   1.000
    O13     O    0.90293   0.78028   0.90613   1.000
    O14     O    0.89830   0.71109   0.90618   1.000
    O15     O    0.93163   0.74579   0.88021   1.000
    O16     O    0.80662   0.74581   0.88953   1.000
    N17     N    0.89074   0.97147   0.66496   1.000
    O18     O    0.73910   0.91942   0.67938   1.000
    O19     O    0.76796   0.88502   0.70534   1.000
    O20     O    0.86427   0.91949   0.72193   1.000
    O21     O    0.89297   0.88500   0.69601   1.000
    N22     N    0.56422   0.25606   0.46981   1.000
    O23     O    0.69378   0.25451   0.38873   1.000
    O24     O    0.59777   0.22007   0.40542   1.000
    O25     O    0.60211   0.28927   0.40536   1.000
    O26     O    0.56873   0.25446   0.37952   1.000
    N27     N    0.43652   0.74380   0.53041   1.000
    O28     O    0.43165   0.74547   0.62077   1.000
    O29     O    0.40278   0.77988   0.59481   1.000
    O30     O    0.39835   0.71070   0.59487   1.000
    O31     O    0.30666   0.74546   0.61144   1.000
    N32     N    0.86300   0.52171   0.66849   1.000
    O33     O    0.87524   0.60902   0.69721   1.000
    O34     O    0.71693   0.57426   0.68063   1.000
    O35     O    0.75023   0.60904   0.70653   1.000
    O36     O    0.84191   0.57432   0.72318   1.000
    N37     N    0.99998   0.99998   0.00009   1.000
    O38     O    0.97337   0.96285   0.94437   1.000
    O39     O    0.02679   0.03703   0.05601   1.000
    N40     N    0.50002   0.99980   0.50003   1.000
    O41     O    0.52875   0.03738   0.44448   1.000
    O42     O    0.47143   0.96231   0.55566   1.000
    N43     N    0.60842   0.02842   0.16485   1.000
    O44     O    0.76053   0.08040   0.17911   1.000
    O45     O    0.73169   0.11496   0.20483   1.000
    O46     O    0.63568   0.08052   0.22152   1.000
    O47     O    0.60664   0.11492   0.19562   1.000
    N48     N    0.06349   0.25547   0.02913   1.000
    O49     O    0.19340   0.25405   0.11055   1.000
    O50     O    0.10194   0.28877   0.09383   1.000
    O51     O    0.06846   0.25409   0.11977   1.000
    O52     O    0.09730   0.21952   0.09404   1.000
    N53     N    0.39120   0.97155   0.83540   1.000
    O54     O    0.36427   0.91948   0.77871   1.000
    O55     O    0.39314   0.88507   0.80466   1.000
    O56     O    0.23945   0.91954   0.82126   1.000
    O57     O    0.26814   0.88505   0.79534   1.000
    N58     N    0.13679   0.47840   0.33210   1.000
    O59     O    0.15819   0.42581   0.27719   1.000
    O60     O    0.12472   0.39113   0.30313   1.000
    O61     O    0.28305   0.42588   0.31976   1.000
    O62     O    0.24966   0.39108   0.29392   1.000
    N63     N    0.10900   0.02846   0.33587   1.000
    O64     O    0.13577   0.08049   0.27924   1.000
    O65     O    0.10693   0.11505   0.30496   1.000
    O66     O    0.26091   0.08061   0.32165   1.000
    O67     O    0.23187   0.11501   0.29574   1.000
    N68     N    0.50324   0.49976   0.50066   1.000
    O69     O    0.54435   0.46528   0.44529   1.000
    O70     O    0.46070   0.53439   0.55580   1.000
    N71     N    0.00003   0.49995   0.00003   1.000
    O72     O    0.04278   0.46552   0.05508   1.000
    O73     O    0.95745   0.53440   0.94503   1.000
    N74     N    0.63702   0.47810   0.16763   1.000
    O75     O    0.78327   0.42548   0.17969   1.000
    O76     O    0.74979   0.39079   0.20563   1.000
    O77     O    0.65812   0.42555   0.22226   1.000
    O78     O    0.62473   0.39075   0.19642   1.000
    N79     N    0.36262   0.52170   0.83244   1.000
    O80     O    0.34170   0.57432   0.77787   1.000
    O81     O    0.37500   0.60909   0.80377   1.000
    O82     O    0.21668   0.57437   0.82042   1.000
    O83     O    0.25000   0.60908   0.79445   1.000
loop_
    _geom_bond_atom_site_label_1
    _geom_bond_atom_site_label_2
    _geom_bond_distance
    _geom_bond_site_symmetry_2
    _ccdc_geom_bond_type
    N12    O13       1.58507      .   S
    Zr9    O13       2.54158      .   S
    N12    O14       1.56202      .   S
    Zr10   O14       2.50376      .   S
    N12    O15       1.96533      .   S
    Zr11   O15       3.31133  1_455   S
    N12    O16       2.00215      .   S
    Zr2    O16       3.29915      .   S
    N17    O18       1.50737      .   S
    Zr0    O18       2.44833      .   S
    N17    O19       2.06685      .   S
    Zr2    O19       3.41661      .   S
    N17    O20       1.60210      .   S
    Zr9    O20       2.58783      .   S
    N17    O21       1.79981      .   S
    Zr11   O21       2.97570  1_455   S
    N22    O23       2.00240      .   S
    Zr5    O23       3.29729      .   S
    N22    O24       1.58495      .   S
    Zr6    O24       2.53801      .   S
    N22    O25       1.56230      .   S
    Zr7    O25       2.50211      .   S
    N22    O26       1.96392      .   S
    Zr8    O26       3.30269      .   S
    N27    O28       1.96544      .   S
    Zr2    O28       3.30773      .   S
    N27    O29       1.58631      .   S
    Zr0    O29       2.54031      .   S
    N27    O30       1.56208      .   S
    Zr1    O30       2.50233      .   S
    N27    O31       2.00259      .   S
    Zr11   O31       3.29754      .   S
    N32    O33       1.79569      .   S
    Zr11   O33       2.96995  1_455   S
    N32    O34       1.51676      .   S
    Zr1    O34       2.45435      .   S
    N32    O35       2.06910      .   S
    Zr2    O35       3.42743      .   S
    N32    O36       1.57365      .   S
    Zr10   O36       2.56403      .   S
    N37    O38       1.41773  1_554   S
    Zr9    O38       2.82481      .   S
    N37    O39       1.42107  1_665   S
    Zr3    O39       2.83367      .   S
    N40    O41       1.42134  1_565   S
    Zr6    O41       2.83242      .   S
    N40    O42       1.42171      .   S
    Zr0    O42       2.83330      .   S
    N43    O44       1.50795      .   S
    Zr3    O44       2.44831  1_455   S
    N43    O45       2.06563      .   S
    Zr5    O45       3.41808      .   S
    N43    O46       1.59882      .   S
    Zr6    O46       2.58912      .   S
    N43    O47       1.79764      .   S
    Zr8    O47       2.97502      .   S
    N48    O49       2.00967      .   S
    Zr8    O49       3.30667      .   S
    N48    O50       1.56838      .   S
    Zr4    O50       2.50848      .   S
    N48    O51       1.97133      .   S
    Zr5    O51       3.31399  1_655   S
    N48    O52       1.59500      .   S
    Zr3    O52       2.55207      .   S
    N53    O54       1.59864      .   S
    Zr0    O54       2.58710      .   S
    N53    O55       1.79728      .   S
    Zr2    O55       2.97433      .   S
    N53    O56       1.50609      .   S
    Zr9    O56       2.44561  1_655   S
    N53    O57       2.06520      .   S
    Zr11   O57       3.41686      .   S
    N58    O59       1.57738      .   S
    Zr4    O59       2.56661      .   S
    N58    O60       1.79694      .   S
    Zr5    O60       2.97222  1_655   S
    N58    O61       1.51806      .   S
    Zr7    O61       2.45649      .   S
    N58    O62       2.07053      .   S
    Zr8    O62       3.42908      .   S
    N63    O64       1.59716      .   S
    Zr3    O64       2.59129      .   S
    N63    O65       1.80079      .   S
    Zr5    O65       2.98022  1_655   S
    N63    O66       1.50910      .   S
    Zr6    O66       2.45031      .   S
    N63    O67       2.06624      .   S
    Zr8    O67       3.42040      .   S
    N68    O69       1.41210      .   S
    Zr7    O69       2.82444      .   S
    N68    O70       1.41157      .   S
    Zr1    O70       2.82032      .   S
    N71    O72       1.40836      .   S
    Zr4    O72       2.81595      .   S
    N71    O73       1.40750  1_454   S
    Zr10   O73       2.81317      .   S
    N74    O75       1.51834      .   S
    Zr4    O75       2.45860  1_455   S
    N74    O76       2.06833      .   S
    Zr5    O76       3.42471      .   S
    N74    O77       1.57204      .   S
    Zr7    O77       2.56529      .   S
    N74    O78       1.79708      .   S
    Zr8    O78       2.97139      .   S
    N79    O80       1.57156      .   S
    Zr1    O80       2.56228      .   S
    N79    O81       1.79689      .   S
    Zr2    O81       2.97164      .   S
    N79    O82       1.51714      .   S
    Zr10   O82       2.45410  1_655   S
    N79    O83       2.06887      .   S
    Zr11   O83       3.42617      .   S
