# CIF file generated by openbabel 2.4.90, see http://openbabel.sf.net
data_I
_chemical_name_common ''
_cell_length_a 15.133
_cell_length_b 17.678
_cell_length_c 17.678
_cell_angle_alpha 90
_cell_angle_beta 90
_cell_angle_gamma 90
_space_group_name_H-M_alt 'P 1'
_space_group_name_Hall 'P 1'
loop_
    _symmetry_equiv_pos_as_xyz
    x,y,z
loop_
    _atom_site_label
    _atom_site_type_symbol
    _atom_site_fract_x
    _atom_site_fract_y
    _atom_site_fract_z
    _atom_site_occupancy
    C0      C    0.98277   0.85845   0.90818   1.000
    C1      C    0.98426   0.15145   0.10127   1.000
    C2      C    0.02864   0.90919   0.15118   1.000
    C3      C    0.02904   0.10083   0.85828   1.000
    C4      C    0.47599   0.85887   0.10125   1.000
    C5      C    0.47635   0.15108   0.90820   1.000
    C6      C    0.53541   0.90880   0.85832   1.000
    C7      C    0.53693   0.10121   0.15119   1.000
    C8      C    0.75839   0.86154   0.86121   1.000
    C9      C    0.75991   0.14854   0.14817   1.000
    C10     C    0.25160   0.86192   0.14814   1.000
    C11     C    0.25198   0.14819   0.86123   1.000
    C12     C    0.78488   0.87504   0.62355   1.000
    C13     C    0.82260   0.89188   0.48750   1.000
    C14     C    0.08377   0.90630   0.54690   1.000
    C15     C    0.04437   0.88610   0.68236   1.000
    C16     C    0.09680   0.84796   0.43285   1.000
    C17     C    0.12592   0.85674   0.29450   1.000
    C18     C    0.90406   0.96763   0.25639   1.000
    C19     C    0.86690   0.96822   0.39340   1.000
    C20     C    0.78537   0.90504   0.01960   1.000
    C21     C    0.74633   0.76721   0.00000   1.000
    C22     C    0.85584   0.74192   0.02112   1.000
    C23     C    0.78291   0.78499   0.08853   1.000
    C24     C    0.78612   0.13499   0.38572   1.000
    C25     C    0.82361   0.11806   0.52181   1.000
    C26     C    0.08487   0.10362   0.46267   1.000
    C27     C    0.04570   0.12389   0.32722   1.000
    C28     C    0.09773   0.16190   0.57680   1.000
    C29     C    0.12657   0.15310   0.71515   1.000
    C30     C    0.90458   0.04232   0.75297   1.000
    C31     C    0.86769   0.04172   0.61582   1.000
    C32     C    0.78570   0.10431   0.98966   1.000
    C33     C    0.74762   0.24201   0.00652   1.000
    C34     C    0.85564   0.26759   0.98854   1.000
    C35     C    0.78303   0.22447   0.92091   1.000
    C36     C    0.22618   0.62426   0.13541   1.000
    C37     C    0.18866   0.48817   0.11865   1.000
    C38     C    0.92749   0.54740   0.10337   1.000
    C39     C    0.96667   0.68286   0.12353   1.000
    C40     C    0.91456   0.43292   0.16182   1.000
    C41     C    0.88634   0.29442   0.15320   1.000
    C42     C    0.10884   0.25712   0.04300   1.000
    C43     C    0.14506   0.39441   0.04218   1.000
    C44     C    0.22739   0.01992   0.10386   1.000
    C45     C    0.26544   0.00000   0.24070   1.000
    C46     C    0.15791   0.01999   0.26731   1.000
    C47     C    0.23042   0.08785   0.22445   1.000
    C48     C    0.22625   0.38606   0.87390   1.000
    C49     C    0.18836   0.52208   0.89068   1.000
    C50     C    0.92733   0.46230   0.90588   1.000
    C51     C    0.96690   0.32693   0.88575   1.000
    C52     C    0.91397   0.57669   0.84760   1.000
    C53     C    0.88523   0.71512   0.85629   1.000
    C54     C    0.10775   0.75303   0.96617   1.000
    C55     C    0.14450   0.61586   0.96700   1.000
    C56     C    0.22551   0.99039   0.90599   1.000
    C57     C    0.26641   0.00676   0.76915   1.000
    C58     C    0.15663   0.99003   0.74235   1.000
    C59     C    0.22899   0.92222   0.78550   1.000
    C60     C    0.27786   0.87519   0.38560   1.000
    C61     C    0.31530   0.89189   0.52180   1.000
    C62     C    0.59128   0.90640   0.46277   1.000
    C63     C    0.55215   0.88636   0.32728   1.000
    C64     C    0.60401   0.84781   0.57682   1.000
    C65     C    0.63281   0.85641   0.71520   1.000
    C66     C    0.39624   0.96735   0.75310   1.000
    C67     C    0.35940   0.96815   0.61592   1.000
    C68     C    0.27715   0.90427   0.98964   1.000
    C69     C    0.24002   0.76739   0.00641   1.000
    C70     C    0.34809   0.74131   0.98804   1.000
    C71     C    0.27495   0.78427   0.92074   1.000
    C72     C    0.27841   0.13479   0.62355   1.000
    C73     C    0.31615   0.11805   0.48748   1.000
    C74     C    0.59201   0.10366   0.54696   1.000
    C75     C    0.55259   0.12373   0.68238   1.000
    C76     C    0.60505   0.16211   0.43290   1.000
    C77     C    0.63420   0.15351   0.29462   1.000
    C78     C    0.39770   0.04261   0.25629   1.000
    C79     C    0.36050   0.04185   0.39338   1.000
    C80     C    0.27905   0.10521   0.01952   1.000
    C81     C    0.23962   0.24195   0.00000   1.000
    C82     C    0.34911   0.26845   0.02140   1.000
    C83     C    0.27635   0.22504   0.08880   1.000
    C84     C    0.73297   0.62394   0.87385   1.000
    C85     C    0.69552   0.48784   0.89063   1.000
    C86     C    0.41965   0.54702   0.90620   1.000
    C87     C    0.45878   0.68248   0.88598   1.000
    C88     C    0.40661   0.43253   0.84791   1.000
    C89     C    0.37846   0.29402   0.85657   1.000
    C90     C    0.61601   0.25678   0.96615   1.000
    C91     C    0.65215   0.39408   0.96705   1.000
    C92     C    0.73410   0.01948   0.90578   1.000
    C93     C    0.77240   0.00000   0.76800   1.000
    C94     C    0.66489   0.01965   0.74225   1.000
    C95     C    0.73728   0.08752   0.78525   1.000
    C96     C    0.73428   0.38643   0.13538   1.000
    C97     C    0.69642   0.52244   0.11864   1.000
    C98     C    0.42067   0.46272   0.10364   1.000
    C99     C    0.46020   0.32735   0.12381   1.000
    C100    C    0.40728   0.57705   0.16174   1.000
    C101    C    0.37844   0.71545   0.15303   1.000
    C102    C    0.61570   0.75346   0.04324   1.000
    C103    C    0.65253   0.61631   0.04243   1.000
    C104    C    0.73340   0.99078   0.10355   1.000
    C105    C    0.77424   0.00719   0.24038   1.000
    C106    C    0.66445   0.99047   0.26717   1.000
    C107    C    0.73681   0.92264   0.22406   1.000
    C108    C    0.91976   0.87863   0.66097   1.000
    C109    C    0.85334   0.88175   0.60580   1.000
    C110    C    0.87479   0.89215   0.53002   1.000
    C111    C    0.96340   0.89996   0.50711   1.000
    C112    C    0.01483   0.89828   0.56307   1.000
    C113    C    0.00000   0.88755   0.63886   1.000
    C114    C    0.98546   0.90672   0.42600   1.000
    C115    C    0.04950   0.87660   0.39625   1.000
    C116    C    0.06570   0.88021   0.31902   1.000
    C117    C    0.94819   0.94222   0.29786   1.000
    C118    C    0.92750   0.94112   0.37434   1.000
    C119    C    0.89677   0.86638   0.74295   1.000
    C120    C    0.83603   0.86268   0.00452   1.000
    C121    C    0.91957   0.88125   0.04940   1.000
    C122    C    0.80330   0.78416   0.02896   1.000
    C123    C    0.92105   0.13139   0.34847   1.000
    C124    C    0.85454   0.12824   0.40356   1.000
    C125    C    0.87586   0.11780   0.47935   1.000
    C126    C    0.96444   0.10997   0.50236   1.000
    C127    C    0.01597   0.11166   0.44648   1.000
    C128    C    0.00000   0.12242   0.37066   1.000
    C129    C    0.98635   0.10319   0.58348   1.000
    C130    C    0.05035   0.13327   0.61333   1.000
    C131    C    0.06639   0.12967   0.69059   1.000
    C132    C    0.94880   0.06771   0.71156   1.000
    C133    C    0.92827   0.06880   0.63505   1.000
    C134    C    0.89815   0.14366   0.26648   1.000
    C135    C    0.83619   0.14678   0.00000   1.000
    C136    C    0.91983   0.12853   0.95997   1.000
    C137    C    0.80325   0.22524   0.98052   1.000
    C138    C    0.09130   0.66156   0.13142   1.000
    C139    C    0.15777   0.60644   0.12852   1.000
    C140    C    0.13644   0.53065   0.11816   1.000
    C141    C    0.04788   0.50766   0.11012   1.000
    C142    C    0.99638   0.56357   0.11156   1.000
    C143    C    0.00302   0.63941   0.12226   1.000
    C144    C    0.02615   0.42650   0.10340   1.000
    C145    C    0.96218   0.39647   0.13338   1.000
    C146    C    0.94650   0.31914   0.12993   1.000
    C147    C    0.06436   0.29845   0.06830   1.000
    C148    C    0.08452   0.37503   0.06921   1.000
    C149    C    0.11441   0.74351   0.14360   1.000
    C150    C    0.17700   0.00448   0.14632   1.000
    C151    C    0.09333   0.04953   0.12863   1.000
    C152    C    0.21018   0.02824   0.22489   1.000
    C153    C    0.09145   0.34849   0.87791   1.000
    C154    C    0.15779   0.40374   0.88082   1.000
    C155    C    0.13625   0.47949   0.89115   1.000
    C156    C    0.04762   0.50232   0.89917   1.000
    C157    C    0.99627   0.44628   0.89771   1.000
    C158    C    0.00312   0.37049   0.88702   1.000
    C159    C    0.02562   0.58344   0.90591   1.000
    C160    C    0.96150   0.61327   0.87602   1.000
    C161    C    0.94552   0.69055   0.87952   1.000
    C162    C    0.06338   0.71159   0.94100   1.000
    C163    C    0.08384   0.63506   0.94004   1.000
    C164    C    0.11469   0.26656   0.86576   1.000
    C165    C    0.17524   0.00000   0.86336   1.000
    C166    C    0.09161   0.96055   0.88092   1.000
    C167    C    0.20874   0.98183   0.78492   1.000
    C168    C    0.41281   0.87882   0.34840   1.000
    C169    C    0.34628   0.88190   0.40354   1.000
    C170    C    0.36757   0.89221   0.47935   1.000
    C171    C    0.45613   0.89999   0.50240   1.000
    C172    C    0.52237   0.89839   0.44654   1.000
    C173    C    0.50109   0.88775   0.37070   1.000
    C174    C    0.47800   0.90663   0.58354   1.000
    C175    C    0.55665   0.87643   0.61338   1.000
    C176    C    0.57267   0.87993   0.69064   1.000
    C177    C    0.44044   0.94198   0.71166   1.000
    C178    C    0.41994   0.94100   0.63514   1.000
    C179    C    0.38993   0.86668   0.26644   1.000
    C180    C    0.32790   0.86201   0.00000   1.000
    C181    C    0.41148   0.88072   0.95995   1.000
    C182    C    0.29541   0.78344   0.98029   1.000
    C183    C    0.41329   0.13120   0.66097   1.000
    C184    C    0.34687   0.12810   0.60579   1.000
    C185    C    0.36833   0.11776   0.53001   1.000
    C186    C    0.45695   0.11000   0.50710   1.000
    C187    C    0.52307   0.11164   0.56306   1.000
    C188    C    0.50162   0.12231   0.63887   1.000
    C189    C    0.47903   0.10333   0.42000   1.000
    C190    C    0.55777   0.13351   0.39630   1.000
    C191    C    0.57399   0.13000   0.31906   1.000
    C192    C    0.44181   0.06799   0.29780   1.000
    C193    C    0.42110   0.06899   0.37428   1.000
    C194    C    0.39029   0.14339   0.74295   1.000
    C195    C    0.32960   0.14771   0.00454   1.000
    C196    C    0.41317   0.12917   0.04945   1.000
    C197    C    0.29668   0.22608   0.02922   1.000
    C198    C    0.59809   0.66121   0.87798   1.000
    C199    C    0.66458   0.60610   0.88081   1.000
    C200    C    0.64329   0.53031   0.89117   1.000
    C201    C    0.55475   0.50731   0.89931   1.000
    C202    C    0.48853   0.56320   0.89793   1.000
    C203    C    0.50983   0.63904   0.88720   1.000
    C204    C    0.53306   0.42613   0.90607   1.000
    C205    C    0.45433   0.39609   0.87625   1.000
    C206    C    0.43868   0.31876   0.87973   1.000
    C207    C    0.57142   0.29809   0.94107   1.000
    C208    C    0.59154   0.37468   0.94014   1.000
    C209    C    0.62120   0.74315   0.86578   1.000
    C210    C    0.68378   0.00407   0.86325   1.000
    C211    C    0.60009   0.04913   0.88088   1.000
    C212    C    0.71708   0.02790   0.78474   1.000
    C213    C    0.59947   0.34888   0.13153   1.000
    C214    C    0.66581   0.40412   0.12850   1.000
    C215    C    0.64428   0.47987   0.11822   1.000
    C216    C    0.55566   0.50272   0.11025   1.000
    C217    C    0.48961   0.44669   0.11177   1.000
    C218    C    0.51113   0.37090   0.12247   1.000
    C219    C    0.53365   0.58384   0.10350   1.000
    C220    C    0.45480   0.61364   0.13335   1.000
    C221    C    0.43877   0.69092   0.12983   1.000
    C222    C    0.57134   0.71200   0.06840   1.000
    C223    C    0.59185   0.63548   0.06930   1.000
    C224    C    0.62266   0.26694   0.14368   1.000
    C225    C    0.68311   0.00000   0.14615   1.000
    C226    C    0.59950   0.96094   0.12856   1.000
    C227    C    0.71657   0.98225   0.22461   1.000
    C228    C    0.00831   0.91178   0.26998   1.000
    C229    C    0.00888   0.09812   0.73954   1.000
    C230    C    0.00000   0.27030   0.09860   1.000
    C231    C    0.00000   0.73956   0.91075   1.000
    C232    C    0.51518   0.91147   0.73961   1.000
    C233    C    0.51661   0.09848   0.26997   1.000
    C234    C    0.49664   0.26993   0.91088   1.000
    C235    C    0.49645   0.73994   0.09860   1.000
    C236    C    0.95984   0.85833   0.78883   1.000
    C237    C    0.81375   0.86537   0.75818   1.000
    C238    C    0.85335   0.86531   0.93505   1.000
    C239    C    0.99396   0.88092   0.01582   1.000
    C240    C    0.91261   0.89353   0.12017   1.000
    C241    C    0.96126   0.15163   0.22063   1.000
    C242    C    0.81515   0.14479   0.25120   1.000
    C243    C    0.85490   0.14407   0.07436   1.000
    C244    C    0.99420   0.12903   0.99363   1.000
    C245    C    0.91297   0.11635   0.88923   1.000
    C246    C    0.05157   0.78961   0.15154   1.000
    C247    C    0.19748   0.75857   0.14475   1.000
    C248    C    0.15761   0.93617   0.14232   1.000
    C249    C    0.01896   0.01589   0.12939   1.000
    C250    C    0.10027   0.12030   0.11667   1.000
    C251    C    0.05187   0.22041   0.85788   1.000
    C252    C    0.19777   0.25155   0.86460   1.000
    C253    C    0.15803   0.07397   0.86716   1.000
    C254    C    0.01720   0.99412   0.88009   1.000
    C255    C    0.09865   0.88978   0.89286   1.000
    C256    C    0.45305   0.85867   0.22061   1.000
    C257    C    0.30693   0.86569   0.25115   1.000
    C258    C    0.34657   0.86574   0.07429   1.000
    C259    C    0.48583   0.88037   0.99365   1.000
    C260    C    0.40462   0.89312   0.88925   1.000
    C261    C    0.45337   0.15133   0.78885   1.000
    C262    C    0.30728   0.14447   0.75817   1.000
    C263    C    0.34694   0.14425   0.93506   1.000
    C264    C    0.48755   0.12957   0.01582   1.000
    C265    C    0.40622   0.11684   0.12016   1.000
    C266    C    0.55835   0.78925   0.85790   1.000
    C267    C    0.70426   0.75820   0.86458   1.000
    C268    C    0.66438   0.93577   0.86715   1.000
    C269    C    0.52572   0.01548   0.88009   1.000
    C270    C    0.60703   0.11990   0.89283   1.000
    C271    C    0.55981   0.22082   0.15159   1.000
    C272    C    0.70574   0.25191   0.14480   1.000
    C273    C    0.66589   0.07436   0.14231   1.000
    C274    C    0.52509   0.99451   0.12937   1.000
    C275    C    0.60655   0.89017   0.11663   1.000
    O276    O    0.84554   0.14542   0.03718   1.000
    O277    O    0.87801   0.13765   0.97998   1.000
    O278    O    0.81972   0.18601   0.99026   1.000
    O279    O    0.81094   0.12555   0.99483   1.000
    O280    O    0.26815   0.23402   0.01461   1.000
    O281    O    0.77482   0.77568   0.01448   1.000
    O282    O    0.33724   0.86387   0.03714   1.000
    O283    O    0.36969   0.87137   0.97997   1.000
    O284    O    0.31165   0.82272   0.99015   1.000
    O285    O    0.30253   0.88314   0.99482   1.000
    O286    O    0.81070   0.88386   0.01206   1.000
    O287    O    0.81967   0.82342   0.01674   1.000
    O288    O    0.87780   0.87196   0.02696   1.000
    O289    O    0.84469   0.86400   0.96978   1.000
    O290    O    0.30433   0.12646   0.01203   1.000
    O291    O    0.31314   0.18690   0.01688   1.000
    O292    O    0.37139   0.13844   0.02699   1.000
    O293    O    0.33827   0.14598   0.96980   1.000
    O294    O    0.26771   0.77541   0.99335   1.000
    O295    O    0.77543   0.23363   0.99352   1.000
    O296    O    0.45036   0.12937   0.03263   1.000
    O297    O    0.48195   0.14032   0.96201   1.000
    O298    O    0.95676   0.88108   0.03261   1.000
    O299    O    0.98836   0.86969   0.96200   1.000
    O300    O    0.82957   0.76304   0.02504   1.000
    O301    O    0.32289   0.24727   0.02531   1.000
    O302    O    0.79311   0.78458   0.05874   1.000
    O303    O    0.28651   0.22556   0.05901   1.000
    O304    O    0.11479   0.38472   0.05569   1.000
    O305    O    0.62219   0.62590   0.05586   1.000
    O306    O    0.08660   0.27779   0.05565   1.000
    O307    O    0.59352   0.73273   0.05582   1.000
    O308    O    0.91609   0.88739   0.08478   1.000
    O309    O    0.40970   0.12301   0.08480   1.000
    O310    O    0.07444   0.33674   0.06875   1.000
    O311    O    0.03218   0.28438   0.08345   1.000
    O312    O    0.58160   0.67374   0.06885   1.000
    O313    O    0.53390   0.72597   0.08350   1.000
    O314    O    0.05533   0.40077   0.08630   1.000
    O315    O    0.56275   0.60966   0.08640   1.000
    O316    O    0.29908   0.86383   0.11121   1.000
    O317    O    0.80741   0.14630   0.11126   1.000
    O318    O    0.99213   0.21088   0.09993   1.000
    O319    O    0.97325   0.29472   0.11427   1.000
    O320    O    0.48622   0.79941   0.09992   1.000
    O321    O    0.46761   0.71543   0.11421   1.000
    O322    O    0.54127   0.87452   0.10894   1.000
    O323    O    0.46452   0.85877   0.16093   1.000
    O324    O    0.48091   0.86962   0.04745   1.000
    O325    O    0.04227   0.13588   0.10897   1.000
    O326    O    0.97276   0.15154   0.16095   1.000
    O327    O    0.98923   0.14024   0.04745   1.000
    O328    O    0.96193   0.55549   0.10747   1.000
    O329    O    0.03702   0.46708   0.10676   1.000
    O330    O    0.99417   0.41148   0.11839   1.000
    O331    O    0.54466   0.54328   0.10687   1.000
    O332    O    0.49422   0.59874   0.11842   1.000
    O333    O    0.70826   0.99539   0.12485   1.000
    O334    O    0.45514   0.45471   0.10770   1.000
    O335    O    0.20220   0.01220   0.12509   1.000
    O336    O    0.02213   0.53562   0.11084   1.000
    O337    O    0.09216   0.51916   0.11414   1.000
    O338    O    0.52264   0.47471   0.11101   1.000
    O339    O    0.59997   0.49130   0.11423   1.000
    O340    O    0.99970   0.60149   0.11691   1.000
    O341    O    0.50037   0.40879   0.11712   1.000
    O342    O    0.60302   0.92556   0.12259   1.000
    O343    O    0.09680   0.08492   0.12265   1.000
    O344    O    0.16255   0.50941   0.11841   1.000
    O345    O    0.14711   0.56855   0.12334   1.000
    O346    O    0.67035   0.50116   0.11843   1.000
    O347    O    0.65505   0.44200   0.12336   1.000
    O348    O    0.47158   0.10903   0.13567   1.000
    O349    O    0.97063   0.90136   0.13568   1.000
    O350    O    0.98485   0.66114   0.12290   1.000
    O351    O    0.04716   0.65049   0.12684   1.000
    O352    O    0.48567   0.34912   0.12314   1.000
    O353    O    0.55530   0.35989   0.12700   1.000
    O354    O    0.63264   0.37650   0.13001   1.000
    O355    O    0.70005   0.39527   0.13194   1.000
    O356    O    0.12453   0.63400   0.12997   1.000
    O357    O    0.19197   0.61535   0.13196   1.000
    O358    O    0.56229   0.97773   0.12896   1.000
    O359    O    0.64130   0.98047   0.13736   1.000
    O360    O    0.05615   0.03271   0.12901   1.000
    O361    O    0.13517   0.02700   0.13747   1.000
    O362    O    0.53101   0.04786   0.14028   1.000
    O363    O    0.02380   0.96254   0.14028   1.000
    O364    O    0.44679   0.65228   0.13159   1.000
    O365    O    0.40861   0.70319   0.14143   1.000
    O366    O    0.95434   0.35781   0.13165   1.000
    O367    O    0.91642   0.30678   0.14157   1.000
    O368    O    0.10286   0.70254   0.13751   1.000
    O369    O    0.61106   0.30791   0.13761   1.000
    O370    O    0.43104   0.59535   0.14755   1.000
    O371    O    0.93837   0.41470   0.14760   1.000
    O372    O    0.67450   0.03718   0.14423   1.000
    O373    O    0.71290   0.11145   0.14524   1.000
    O374    O    0.16730   0.97033   0.14432   1.000
    O375    O    0.20460   0.89905   0.14523   1.000
    O376    O    0.15595   0.75104   0.14417   1.000
    O377    O    0.08299   0.76656   0.14757   1.000
    O378    O    0.66420   0.25942   0.14424   1.000
    O379    O    0.59124   0.24388   0.14764   1.000
    O380    O    0.22454   0.81025   0.14644   1.000
    O381    O    0.73282   0.20022   0.14649   1.000
    O382    O    0.69984   0.99113   0.18538   1.000
    O383    O    0.19359   0.01636   0.18560   1.000
    O384    O    0.27926   0.86380   0.19964   1.000
    O385    O    0.78753   0.14667   0.19968   1.000
    O386    O    0.04010   0.84940   0.15136   1.000
    O387    O    0.01847   0.91049   0.21058   1.000
    O388    O    0.54837   0.16101   0.15139   1.000
    O389    O    0.52677   0.09985   0.21058   1.000
    O390    O    0.42149   0.86268   0.24353   1.000
    O391    O    0.92970   0.14765   0.24356   1.000
    O392    O    0.72669   0.95245   0.22434   1.000
    O393    O    0.22030   0.05804   0.22467   1.000
    O394    O    0.74540   0.99472   0.23250   1.000
    O395    O    0.69051   0.98636   0.24589   1.000
    O396    O    0.23781   0.01412   0.23280   1.000
    O397    O    0.18404   0.02411   0.24610   1.000
    O398    O    0.34843   0.86618   0.25879   1.000
    O399    O    0.85665   0.14423   0.25884   1.000
    O400    O    0.41975   0.05530   0.27704   1.000
    O401    O    0.92612   0.95492   0.27713   1.000
    O402    O    0.40137   0.87275   0.30742   1.000
    O403    O    0.90960   0.13753   0.30747   1.000
    O404    O    0.47921   0.08323   0.28388   1.000
    O405    O    0.54530   0.11424   0.29451   1.000
    O406    O    0.97825   0.92700   0.28392   1.000
    O407    O    0.03700   0.89600   0.29450   1.000
    O408    O    0.09581   0.86848   0.30676   1.000
    O409    O    0.60409   0.14176   0.30684   1.000
    O410    O    0.43145   0.06849   0.33604   1.000
    O411    O    0.93784   0.94166   0.33610   1.000
    O412    O    0.05760   0.87840   0.35763   1.000
    O413    O    0.56588   0.13176   0.35768   1.000
    O414    O    0.02285   0.12316   0.34894   1.000
    O415    O    0.52662   0.88706   0.34899   1.000
    O416    O    0.45695   0.88329   0.35955   1.000
    O417    O    0.37954   0.88036   0.37597   1.000
    O418    O    0.96053   0.12691   0.35956   1.000
    O419    O    0.88780   0.12982   0.37601   1.000
    O420    O    0.00798   0.11704   0.40857   1.000
    O421    O    0.51173   0.89307   0.40862   1.000
    O422    O    0.39080   0.05542   0.38383   1.000
    O423    O    0.45006   0.08616   0.39714   1.000
    O424    O    0.89720   0.95467   0.38387   1.000
    O425    O    0.95648   0.92392   0.40017   1.000
    O426    O    0.31207   0.87854   0.39457   1.000
    O427    O    0.82033   0.13161   0.39464   1.000
    O428    O    0.01748   0.89166   0.41113   1.000
    O429    O    0.07315   0.86228   0.41455   1.000
    O430    O    0.51840   0.11842   0.40815   1.000
    O431    O    0.58141   0.14781   0.41460   1.000
    O432    O    0.35692   0.88705   0.44145   1.000
    O433    O    0.86520   0.12302   0.44145   1.000
    O434    O    0.46799   0.10667   0.46355   1.000
    O435    O    0.97443   0.90334   0.46655   1.000
    O436    O    0.05042   0.10764   0.45458   1.000
    O437    O    0.99020   0.11081   0.47442   1.000
    O438    O    0.55682   0.90239   0.45465   1.000
    O439    O    0.48925   0.89919   0.47447   1.000
    O440    O    0.92015   0.11389   0.49086   1.000
    O441    O    0.84974   0.11793   0.50058   1.000
    O442    O    0.41185   0.89610   0.49087   1.000
    O443    O    0.34143   0.89205   0.50057   1.000
    O444    O    0.34224   0.11791   0.50875   1.000
    O445    O    0.84869   0.89202   0.50876   1.000
    O446    O    0.97539   0.10658   0.54292   1.000
    O447    O    0.46707   0.90331   0.54297   1.000
    O448    O    0.41264   0.11388   0.51855   1.000
    O449    O    0.49001   0.11082   0.53508   1.000
    O450    O    0.91909   0.89606   0.51856   1.000
    O451    O    0.98912   0.89912   0.53509   1.000
    O452    O    0.35760   0.12293   0.56790   1.000
    O453    O    0.86406   0.88695   0.56791   1.000
    O454    O    0.04930   0.90229   0.55499   1.000
    O455    O    0.55754   0.10765   0.55501   1.000
    O456    O    0.51235   0.11698   0.60096   1.000
    O457    O    0.00742   0.89292   0.60096   1.000
    O458    O    0.07404   0.14758   0.59506   1.000
    O459    O    0.58033   0.86212   0.59510   1.000
    O460    O    0.01835   0.11823   0.59840   1.000
    O461    O    0.95731   0.08599   0.60926   1.000
    O462    O    0.51733   0.89153   0.59846   1.000
    O463    O    0.44897   0.92382   0.60934   1.000
    O464    O    0.31264   0.13145   0.61467   1.000
    O465    O    0.38008   0.12965   0.63338   1.000
    O466    O    0.81911   0.87840   0.61467   1.000
    O467    O    0.88655   0.88019   0.63338   1.000
    O468    O    0.05837   0.13147   0.65196   1.000
    O469    O    0.56466   0.87818   0.65201   1.000
    O470    O    0.89798   0.05526   0.62543   1.000
    O471    O    0.38967   0.95458   0.62553   1.000
    O472    O    0.93854   0.06825   0.67330   1.000
    O473    O    0.43019   0.94149   0.67340   1.000
    O474    O    0.95988   0.88309   0.64991   1.000
    O475    O    0.02218   0.88683   0.66061   1.000
    O476    O    0.45746   0.12676   0.64992   1.000
    O477    O    0.52710   0.12302   0.66063   1.000
    O478    O    0.90827   0.87250   0.70196   1.000
    O479    O    0.40179   0.13729   0.70196   1.000
    O480    O    0.09648   0.14139   0.70287   1.000
    O481    O    0.03764   0.11389   0.71506   1.000
    O482    O    0.60274   0.86817   0.70292   1.000
    O483    O    0.54392   0.89570   0.71513   1.000
    O484    O    0.97884   0.08291   0.72555   1.000
    O485    O    0.92669   0.05501   0.73226   1.000
    O486    O    0.47781   0.92673   0.72563   1.000
    O487    O    0.41834   0.95466   0.73238   1.000
    O488    O    0.01896   0.09947   0.79891   1.000
    O489    O    0.52529   0.91014   0.79896   1.000
    O490    O    0.69098   0.02378   0.76349   1.000
    O491    O    0.18269   0.98593   0.76363   1.000
    O492    O    0.85526   0.86587   0.75056   1.000
    O493    O    0.92830   0.86235   0.76589   1.000
    O494    O    0.34879   0.14393   0.75056   1.000
    O495    O    0.42183   0.14736   0.76590   1.000
    O496    O    0.27963   0.14633   0.80970   1.000
    O497    O    0.78607   0.86346   0.80970   1.000
    O498    O    0.74474   0.01395   0.77637   1.000
    O499    O    0.23758   0.99430   0.77703   1.000
    O500    O    0.72718   0.05771   0.78499   1.000
    O501    O    0.70043   0.01599   0.82399   1.000
    O502    O    0.21886   0.95203   0.78521   1.000
    O503    O    0.19199   0.99092   0.82414   1.000
    O504    O    0.97130   0.85839   0.84850   1.000
    O505    O    0.46486   0.15120   0.84852   1.000
    O506    O    0.93773   0.59498   0.86181   1.000
    O507    O    0.43047   0.41431   0.86208   1.000
    O508    O    0.91537   0.70284   0.86790   1.000
    O509    O    0.40857   0.30639   0.86815   1.000
    O510    O    0.04045   0.16062   0.85808   1.000
    O511    O    0.08328   0.24348   0.86182   1.000
    O512    O    0.54688   0.84903   0.85811   1.000
    O513    O    0.58977   0.76620   0.86184   1.000
    O514    O    0.02312   0.04747   0.86918   1.000
    O515    O    0.97101   0.10859   0.87376   1.000
    O516    O    0.53057   0.96214   0.86920   1.000
    O517    O    0.47001   0.90096   0.87378   1.000
    O518    O    0.73133   0.80987   0.86290   1.000
    O519    O    0.71139   0.89866   0.86418   1.000
    O520    O    0.80587   0.86343   0.89813   1.000
    O521    O    0.22488   0.19987   0.86292   1.000
    O522    O    0.20501   0.11108   0.86420   1.000
    O523    O    0.29946   0.14622   0.89815   1.000
    O524    O    0.67408   0.96992   0.86520   1.000
    O525    O    0.64194   0.02660   0.87206   1.000
    O526    O    0.70894   0.01178   0.88451   1.000
    O527    O    0.16664   0.03698   0.86526   1.000
    O528    O    0.13343   0.98027   0.87214   1.000
    O529    O    0.20038   0.99520   0.88467   1.000
    O530    O    0.66273   0.75068   0.86518   1.000
    O531    O    0.15623   0.25906   0.86518   1.000
    O532    O    0.10307   0.30752   0.87184   1.000
    O533    O    0.60964   0.70218   0.87188   1.000
    O534    O    0.69878   0.61502   0.87733   1.000
    O535    O    0.19202   0.39490   0.87736   1.000
    O536    O    0.95351   0.65191   0.87777   1.000
    O537    O    0.99356   0.59835   0.89097   1.000
    O538    O    0.44651   0.35742   0.87799   1.000
    O539    O    0.49369   0.41111   0.89116   1.000
    O540    O    0.12462   0.37611   0.87936   1.000
    O541    O    0.04728   0.35949   0.88246   1.000
    O542    O    0.63134   0.63365   0.87940   1.000
    O543    O    0.55396   0.65012   0.88259   1.000
    O544    O    0.97276   0.71506   0.89513   1.000
    O545    O    0.46766   0.29434   0.89530   1.000
    O546    O    0.05441   0.97733   0.88050   1.000
    O547    O    0.56291   0.03231   0.88048   1.000
    O548    O    0.65394   0.56820   0.88599   1.000
    O549    O    0.14702   0.44162   0.88598   1.000
    O550    O    0.60356   0.08451   0.88685   1.000
    O551    O    0.09513   0.92516   0.88689   1.000
    O552    O    0.98501   0.34871   0.88639   1.000
    O553    O    0.48430   0.66076   0.88659   1.000
    O554    O    0.99969   0.40838   0.89237   1.000
    O555    O    0.49918   0.60112   0.89256   1.000
    O556    O    0.91640   0.12244   0.92460   1.000
    O557    O    0.40805   0.88692   0.92460   1.000
    O558    O    0.66940   0.50907   0.89090   1.000
    O559    O    0.16230   0.50078   0.89092   1.000
    O560    O    0.09193   0.49091   0.89516   1.000
    O561    O    0.59902   0.51881   0.89524   1.000
    O562    O    0.54169   0.13549   0.90051   1.000
    O563    O    0.04071   0.87412   0.90052   1.000
    O564    O    0.02195   0.47430   0.89844   1.000
    O565    O    0.96180   0.45429   0.90179   1.000
    O566    O    0.52164   0.53525   0.89862   1.000
    O567    O    0.45409   0.55511   0.90206   1.000
    O568    O    0.03662   0.54288   0.90254   1.000
    O569    O    0.54390   0.46672   0.90269   1.000
    O570    O    0.05473   0.60925   0.92297   1.000
    O571    O    0.56230   0.40041   0.92310   1.000
    O572    O    0.99138   0.79900   0.90946   1.000
    O573    O    0.48649   0.21050   0.90954   1.000
    O574    O    0.03169   0.72557   0.92587   1.000
    O575    O    0.53403   0.28401   0.92598   1.000
    O576    O    0.28518   0.78385   0.95051   1.000
    O577    O    0.79314   0.22486   0.95071   1.000
    O578    O    0.07361   0.67333   0.94052   1.000
    O579    O    0.11417   0.62546   0.95352   1.000
    O580    O    0.58148   0.33639   0.94060   1.000
    O581    O    0.62184   0.38438   0.95359   1.000
    O582    O    0.08557   0.73231   0.95358   1.000
    O583    O    0.59372   0.27744   0.95361   1.000
    O584    O    0.44865   0.88055   0.97680   1.000
    O585    O    0.95702   0.12878   0.97680   1.000
    O586    O    0.32175   0.76237   0.98417   1.000
    O587    O    0.82945   0.24642   0.98453   1.000
    O588    O    0.91806   0.86188   0.92161   1.000
    O589    O    0.91958   0.14776   0.08781   1.000
    O590    O    0.09312   0.92268   0.14675   1.000
    O591    O    0.09354   0.08740   0.86272   1.000
    O592    O    0.41128   0.86230   0.08777   1.000
    O593    O    0.41164   0.14767   0.92163   1.000
    O594    O    0.59990   0.92229   0.86273   1.000
    O595    O    0.60141   0.08779   0.14675   1.000
loop_
    _geom_bond_atom_site_label_1
    _geom_bond_atom_site_label_2
    _geom_bond_distance
    _geom_bond_site_symmetry_2
    _ccdc_geom_bond_type
    C135   O276      0.67278      .   S
    C243   O276      0.67278      .   S
    C135   O277      0.74283  1_554   S
    C136   O277      0.74283      .   S
    C135   O278      0.75682  1_554   S
    C137   O278      0.75682      .   S
    C135   O279      0.54332  1_554   S
    C32    O279      0.54332      .   S
    C81    O280      0.52226      .   S
    C197   O280      0.52226      .   S
    C21    O281      0.52328      .   S
    C122   O281      0.52328      .   S
    C180   O282      0.67249      .   S
    C258   O282      0.67249      .   S
    C180   O283      0.74337  1_554   S
    C181   O283      0.74337      .   S
    C180   O284      0.75707  1_554   S
    C182   O284      0.75707      .   S
    C180   O285      0.54346  1_554   S
    C68    O285      0.54346      .   S
    C120   O286      0.55215      .   S
    C20    O286      0.55215      .   S
    C120   O287      0.76789      .   S
    C122   O287      0.76789      .   S
    C120   O288      0.76409      .   S
    C121   O288      0.76409      .   S
    C120   O289      0.62830  1_554   S
    C238   O289      0.62830      .   S
    C195   O290      0.55222      .   S
    C80    O290      0.55222      .   S
    C195   O291      0.76783      .   S
    C197   O291      0.76783      .   S
    C195   O292      0.76436      .   S
    C196   O292      0.76436      .   S
    C195   O293      0.62873  1_554   S
    C263   O293      0.62873      .   S
    C69    O294      0.49905  1_554   S
    C182   O294      0.49905      .   S
    C33    O295      0.50197  1_554   S
    C137   O295      0.50197      .   S
    C264   O296      0.63650      .   S
    C196   O296      0.63650      .   S
    C264   O297      0.97377  1_554   S
    C5     O297      0.97377      .   S
    C239   O298      0.63634      .   S
    C121   O298      0.63634      .   S
    C239   O299      0.97560  1_554   S
    C0     O299      0.97560      .   S
    C22    O300      0.54981      .   S
    C122   O300      0.54981      .   S
    C82    O301      0.54991      .   S
    C197   O301      0.54991      .   S
    C122   O302      0.54872      .   S
    C23    O302      0.54872      .   S
    C197   O303      0.54872      .   S
    C83    O303      0.54872      .   S
    C43    O304      0.54429      .   S
    C148   O304      0.54429      .   S
    C103   O305      0.54402      .   S
    C223   O305      0.54402      .   S
    C42    O306      0.54472      .   S
    C147   O306      0.54472      .   S
    C102   O307      0.54438      .   S
    C222   O307      0.54438      .   S
    C121   O308      0.63706      .   S
    C240   O308      0.63706      .   S
    C196   O309      0.63661      .   S
    C265   O309      0.63661      .   S
    C147   O310      0.69393      .   S
    C148   O310      0.69393      .   S
    C147   O311      0.60895      .   S
    C230   O311      0.60895      .   S
    C222   O312      0.69397      .   S
    C223   O312      0.69397      .   S
    C222   O313      0.67331      .   S
    C235   O313      0.67331      .   S
    C148   O314      0.70234      .   S
    C144   O314      0.70234      .   S
    C223   O315      0.70264      .   S
    C219   O315      0.70264      .   S
    C258   O316      0.97143      .   S
    C10    O316      0.97143      .   S
    C243   O317      0.97148      .   S
    C9     O317      0.97148      .   S
    C230   O318      1.05749  1_455   S
    C1     O318      1.05749      .   S
    C230   O319      0.65338  1_455   S
    C146   O319      0.65338      .   S
    C235   O320      1.06276      .   S
    C4     O320      1.06276      .   S
    C235   O321      0.67415      .   S
    C221   O321      0.67415      .   S
    C4     O322      1.03486      .   S
    C275   O322      1.03486      .   S
    C4     O323      1.06921      .   S
    C256   O323      1.06921      .   S
    C4     O324      0.97274      .   S
    C259   O324      0.97274  1_556   S
    C1     O325      0.92996  1_655   S
    C250   O325      0.92996      .   S
    C1     O326      1.06929      .   S
    C241   O326      1.06929      .   S
    C1     O327      0.97476      .   S
    C244   O327      0.97476  1_556   S
    C38    O328      0.54534      .   S
    C142   O328      0.54534      .   S
    C144   O329      0.73844      .   S
    C141   O329      0.73844      .   S
    C144   O330      0.61230  1_455   S
    C145   O330      0.61230      .   S
    C219   O331      0.73853      .   S
    C216   O331      0.73853      .   S
    C219   O332      0.70350      .   S
    C220   O332      0.70350      .   S
    C104   O333      0.54150      .   S
    C225   O333      0.54150  1_545   S
    C98    O334      0.54532      .   S
    C217   O334      0.54532      .   S
    C44    O335      0.55215      .   S
    C150   O335      0.55215      .   S
    C141   O336      0.62946      .   S
    C142   O336      0.62946  1_655   S
    C141   O337      0.70377      .   S
    C140   O337      0.70377      .   S
    C216   O338      0.70374      .   S
    C217   O338      0.70374      .   S
    C216   O339      0.70383      .   S
    C215   O339      0.70383      .   S
    C142   O340      0.67884      .   S
    C143   O340      0.67884  1_455   S
    C217   O341      0.69590      .   S
    C218   O341      0.69590      .   S
    C275   O342      0.63659      .   S
    C226   O342      0.63659      .   S
    C250   O343      0.63657      .   S
    C151   O343      0.63657      .   S
    C140   O344      0.54514      .   S
    C37    O344      0.54514      .   S
    C140   O345      0.69510      .   S
    C139   O345      0.69510      .   S
    C215   O346      0.54516      .   S
    C97    O346      0.54516      .   S
    C215   O347      0.69510      .   S
    C214   O347      0.69510      .   S
    C265   O348      1.03557      .   S
    C7     O348      1.03557      .   S
    C240   O349      0.93007      .   S
    C2     O349      0.93007  1_455   S
    C143   O350      0.47252  1_455   S
    C39    O350      0.47252      .   S
    C143   O351      0.70078      .   S
    C138   O351      0.70078      .   S
    C218   O352      0.54477      .   S
    C99    O352      0.54477      .   S
    C218   O353      0.70076      .   S
    C213   O353      0.70076      .   S
    C214   O354      0.70081      .   S
    C213   O354      0.70081      .   S
    C214   O355      0.54453      .   S
    C96    O355      0.54453      .   S
    C139   O356      0.70076      .   S
    C138   O356      0.70076      .   S
    C139   O357      0.54444      .   S
    C36    O357      0.54444      .   S
    C226   O358      0.63645      .   S
    C274   O358      0.63645      .   S
    C226   O359      0.73734      .   S
    C225   O359      0.73734  1_545   S
    C151   O360      0.63648      .   S
    C249   O360      0.63648      .   S
    C151   O361      0.76412      .   S
    C150   O361      0.76412      .   S
    C274   O362      0.96685  1_565   S
    C7     O362      0.96685      .   S
    C249   O363      0.96532  1_545   S
    C2     O363      0.96532      .   S
    C221   O364      0.69444      .   S
    C220   O364      0.69444      .   S
    C221   O365      0.54539      .   S
    C101   O365      0.54539      .   S
    C146   O366      0.69440      .   S
    C145   O366      0.69440      .   S
    C146   O367      0.54523      .   S
    C41    O367      0.54523      .   S
    C138   O368      0.75287      .   S
    C149   O368      0.75287      .   S
    C213   O369      0.75291      .   S
    C224   O369      0.75291      .   S
    C220   O370      0.54486      .   S
    C100   O370      0.54486      .   S
    C145   O371      0.54484      .   S
    C40    O371      0.54484      .   S
    C273   O372      0.67087      .   S
    C225   O372      0.67087      .   S
    C273   O373      0.96890      .   S
    C9     O373      0.96890      .   S
    C248   O374      0.62230      .   S
    C150   O374      0.62230  1_545   S
    C248   O375      0.96910      .   S
    C10    O375      0.96910      .   S
    C149   O376      0.64256      .   S
    C247   O376      0.64256      .   S
    C149   O377      0.63017      .   S
    C246   O377      0.63017      .   S
    C224   O378      0.64258      .   S
    C272   O378      0.64258      .   S
    C224   O379      0.63023      .   S
    C271   O379      0.63023      .   S
    C247   O380      1.00157      .   S
    C10    O380      1.00157      .   S
    C272   O381      1.00183      .   S
    C9     O381      1.00183      .   S
    C225   O382      0.75476  1_545   S
    C227   O382      0.75476      .   S
    C150   O383      0.76774      .   S
    C152   O383      0.76774      .   S
    C10    O384      1.00271      .   S
    C257   O384      1.00271      .   S
    C9     O385      1.00254      .   S
    C242   O385      1.00254      .   S
    C2     O386      1.07112      .   S
    C246   O386      1.07112      .   S
    C2     O387      1.06153      .   S
    C228   O387      1.06153      .   S
    C7     O388      1.07124      .   S
    C271   O388      1.07124      .   S
    C7     O389      1.06137      .   S
    C233   O389      1.06137      .   S
    C256   O390      0.63024      .   S
    C179   O390      0.63024      .   S
    C241   O391      0.63024      .   S
    C134   O391      0.63024      .   S
    C107   O392      0.54871      .   S
    C227   O392      0.54871      .   S
    C47    O393      0.54873      .   S
    C152   O393      0.54873      .   S
    C227   O394      0.50830      .   S
    C105   O394      0.50830  1_545   S
    C227   O395      0.54985      .   S
    C106   O395      0.54985      .   S
    C152   O396      0.50662      .   S
    C45    O396      0.50662      .   S
    C152   O397      0.54984      .   S
    C46    O397      0.54984      .   S
    C257   O398      0.64243      .   S
    C179   O398      0.64243      .   S
    C242   O399      0.64249      .   S
    C134   O399      0.64249      .   S
    C78    O400      0.54435      .   S
    C192   O400      0.54435      .   S
    C18    O401      0.54435      .   S
    C117   O401      0.54435      .   S
    C179   O402      0.75253      .   S
    C168   O402      0.75253      .   S
    C134   O403      0.75299      .   S
    C123   O403      0.75299      .   S
    C233   O404      0.67341      .   S
    C192   O404      0.67341      .   S
    C233   O405      0.67410      .   S
    C191   O405      0.67410      .   S
    C228   O406      0.58308  1_455   S
    C117   O406      0.58308      .   S
    C228   O407      0.67409      .   S
    C116   O407      0.67409      .   S
    C17    O408      0.54551      .   S
    C116   O408      0.54551      .   S
    C77    O409      0.54536      .   S
    C191   O409      0.54536      .   S
    C192   O410      0.69399      .   S
    C193   O410      0.69399      .   S
    C117   O411      0.69396      .   S
    C118   O411      0.69396      .   S
    C116   O412      0.69429      .   S
    C115   O412      0.69429      .   S
    C191   O413      0.69436      .   S
    C190   O413      0.69436      .   S
    C27    O414      0.51686      .   S
    C128   O414      0.51686      .   S
    C63    O415      0.54474      .   S
    C173   O415      0.54474      .   S
    C168   O416      0.70094      .   S
    C173   O416      0.70094      .   S
    C168   O417      0.70120      .   S
    C169   O417      0.70120      .   S
    C123   O418      0.63371      .   S
    C128   O418      0.63371  1_455   S
    C123   O419      0.70081      .   S
    C124   O419      0.70081      .   S
    C128   O420      0.68759      .   S
    C127   O420      0.68759      .   S
    C173   O421      0.69580      .   S
    C172   O421      0.69580      .   S
    C193   O422      0.54432      .   S
    C79    O422      0.54432      .   S
    C193   O423      0.66905      .   S
    C189   O423      0.66905      .   S
    C118   O424      0.54409      .   S
    C19    O424      0.54409      .   S
    C118   O425      0.70232      .   S
    C114   O425      0.70232      .   S
    C60    O426      0.54466      .   S
    C169   O426      0.54466      .   S
    C24    O427      0.54448      .   S
    C124   O427      0.54448      .   S
    C115   O428      0.61224      .   S
    C114   O428      0.61224  1_655   S
    C115   O429      0.54482      .   S
    C16    O429      0.54482      .   S
    C190   O430      0.68551      .   S
    C189   O430      0.68551      .   S
    C190   O431      0.54458      .   S
    C76    O431      0.54458      .   S
    C169   O432      0.69518      .   S
    C170   O432      0.69518      .   S
    C124   O433      0.69521      .   S
    C125   O433      0.69521      .   S
    C189   O434      0.78999      .   S
    C186   O434      0.78999      .   S
    C114   O435      0.73852      .   S
    C111   O435      0.73852      .   S
    C127   O436      0.54533      .   S
    C26    O436      0.54533      .   S
    C127   O437      0.62943  1_455   S
    C126   O437      0.62943      .   S
    C172   O438      0.54534      .   S
    C62    O438      0.54534      .   S
    C172   O439      0.70370      .   S
    C171   O439      0.70370      .   S
    C125   O440      0.70381      .   S
    C126   O440      0.70381      .   S
    C125   O441      0.54513      .   S
    C25    O441      0.54513      .   S
    C170   O442      0.70379      .   S
    C171   O442      0.70379      .   S
    C170   O443      0.54516      .   S
    C61    O443      0.54516      .   S
    C73    O444      0.54517      .   S
    C185   O444      0.54517      .   S
    C13    O445      0.54514      .   S
    C110   O445      0.54514      .   S
    C126   O446      0.73837      .   S
    C129   O446      0.73837      .   S
    C171   O447      0.73838      .   S
    C174   O447      0.73838      .   S
    C186   O448      0.70382      .   S
    C185   O448      0.70382      .   S
    C186   O449      0.70367      .   S
    C187   O449      0.70367      .   S
    C111   O450      0.70381      .   S
    C110   O450      0.70381      .   S
    C111   O451      0.62954      .   S
    C112   O451      0.62954  1_455   S
    C185   O452      0.69525      .   S
    C184   O452      0.69525      .   S
    C110   O453      0.69530      .   S
    C109   O453      0.69530      .   S
    C14    O454      0.54548      .   S
    C112   O454      0.54548      .   S
    C74    O455      0.54531      .   S
    C187   O455      0.54531      .   S
    C187   O456      0.69587      .   S
    C188   O456      0.69587      .   S
    C112   O457      0.68584      .   S
    C113   O457      0.68584      .   S
    C28    O458      0.54480      .   S
    C130   O458      0.54480      .   S
    C64    O459      0.54484      .   S
    C175   O459      0.54484      .   S
    C129   O460      0.61226  1_655   S
    C130   O460      0.61226      .   S
    C129   O461      0.70232      .   S
    C133   O461      0.70232      .   S
    C174   O462      0.70352      .   S
    C175   O462      0.70352      .   S
    C174   O463      0.70234      .   S
    C178   O463      0.70234      .   S
    C184   O464      0.54449      .   S
    C72    O464      0.54449      .   S
    C184   O465      0.70084      .   S
    C183   O465      0.70084      .   S
    C109   O466      0.54446      .   S
    C12    O466      0.54446      .   S
    C109   O467      0.70081      .   S
    C108   O467      0.70081      .   S
    C130   O468      0.69433      .   S
    C131   O468      0.69433      .   S
    C175   O469      0.69426      .   S
    C176   O469      0.69426      .   S
    C31    O470      0.54430      .   S
    C133   O470      0.54430      .   S
    C67    O471      0.54432      .   S
    C178   O471      0.54432      .   S
    C133   O472      0.69395      .   S
    C132   O472      0.69395      .   S
    C178   O473      0.69397      .   S
    C177   O473      0.69397      .   S
    C113   O474      0.64266  1_455   S
    C108   O474      0.64266      .   S
    C113   O475      0.51060      .   S
    C15    O475      0.51060      .   S
    C188   O476      0.70075      .   S
    C183   O476      0.70075      .   S
    C188   O477      0.54476      .   S
    C75    O477      0.54476      .   S
    C108   O478      0.75304      .   S
    C119   O478      0.75304      .   S
    C183   O479      0.75296      .   S
    C194   O479      0.75296      .   S
    C131   O480      0.54532      .   S
    C29    O480      0.54532      .   S
    C131   O481      0.67407      .   S
    C229   O481      0.67407      .   S
    C176   O482      0.54536      .   S
    C65    O482      0.54536      .   S
    C176   O483      0.67406      .   S
    C232   O483      0.67406      .   S
    C132   O484      0.58314      .   S
    C229   O484      0.58314  1_455   S
    C132   O485      0.54433      .   S
    C30    O485      0.54433      .   S
    C177   O486      0.67340      .   S
    C232   O486      0.67340      .   S
    C177   O487      0.54436      .   S
    C66    O487      0.54436      .   S
    C229   O488      1.06085      .   S
    C3     O488      1.06085      .   S
    C232   O489      1.06065      .   S
    C6     O489      1.06065      .   S
    C94    O490      0.54984      .   S
    C212   O490      0.54984      .   S
    C58    O491      0.54980      .   S
    C167   O491      0.54980      .   S
    C119   O492      0.64245      .   S
    C237   O492      0.64245      .   S
    C119   O493      0.63030      .   S
    C236   O493      0.63030      .   S
    C194   O494      0.64245      .   S
    C262   O494      0.64245      .   S
    C194   O495      0.63030      .   S
    C261   O495      0.63030      .   S
    C262   O496      1.00298      .   S
    C11    O496      1.00298      .   S
    C237   O497      1.00297      .   S
    C8     O497      1.00297      .   S
    C93    O498      0.50784      .   S
    C212   O498      0.50784      .   S
    C57    O499      0.50831  1_545   S
    C167   O499      0.50831      .   S
    C212   O500      0.54871      .   S
    C95    O500      0.54871      .   S
    C212   O501      0.76774      .   S
    C210   O501      0.76774      .   S
    C167   O502      0.54872      .   S
    C59    O502      0.54872      .   S
    C167   O503      0.75547      .   S
    C165   O503      0.75547  1_545   S
    C236   O504      1.06911      .   S
    C0     O504      1.06911      .   S
    C261   O505      1.06917      .   S
    C5     O505      1.06917      .   S
    C52    O506      0.54495      .   S
    C160   O506      0.54495      .   S
    C88    O507      0.54483      .   S
    C205   O507      0.54483      .   S
    C53    O508      0.54538      .   S
    C161   O508      0.54538      .   S
    C89    O509      0.54534      .   S
    C206   O509      0.54534      .   S
    C251   O510      1.07101      .   S
    C3     O510      1.07101      .   S
    C251   O511      0.63023      .   S
    C164   O511      0.63023      .   S
    C266   O512      1.07085      .   S
    C6     O512      1.07085      .   S
    C266   O513      0.63015      .   S
    C209   O513      0.63015      .   S
    C3     O514      0.96687      .   S
    C254   O514      0.96687  1_565   S
    C3     O515      0.93007  1_455   S
    C245   O515      0.93007      .   S
    C6     O516      0.96519      .   S
    C269   O516      0.96519  1_545   S
    C6     O517      1.03598      .   S
    C260   O517      1.03598      .   S
    C8     O518      1.00149      .   S
    C267   O518      1.00149      .   S
    C8     O519      0.96911      .   S
    C268   O519      0.96911      .   S
    C8     O520      0.97124      .   S
    C238   O520      0.97124      .   S
    C11    O521      1.00193      .   S
    C252   O521      1.00193      .   S
    C11    O522      0.96880      .   S
    C253   O522      0.96880      .   S
    C11    O523      0.97124      .   S
    C263   O523      0.97124      .   S
    C210   O524      0.62227  1_545   S
    C268   O524      0.62227      .   S
    C210   O525      0.76410      .   S
    C211   O525      0.76410      .   S
    C210   O526      0.55212      .   S
    C92    O526      0.55212      .   S
    C165   O527      0.66748      .   S
    C253   O527      0.66748      .   S
    C165   O528      0.73902  1_545   S
    C166   O528      0.73902      .   S
    C165   O529      0.54207  1_545   S
    C56    O529      0.54207      .   S
    C267   O530      0.64254      .   S
    C209   O530      0.64254      .   S
    C252   O531      0.64255      .   S
    C164   O531      0.64255      .   S
    C164   O532      0.75289      .   S
    C153   O532      0.75289      .   S
    C209   O533      0.75282      .   S
    C198   O533      0.75282      .   S
    C84    O534      0.54445      .   S
    C199   O534      0.54445      .   S
    C48    O535      0.54452      .   S
    C154   O535      0.54452      .   S
    C160   O536      0.69444      .   S
    C161   O536      0.69444      .   S
    C160   O537      0.61213      .   S
    C159   O537      0.61213  1_455   S
    C205   O538      0.69439      .   S
    C206   O538      0.69439      .   S
    C205   O539      0.70346      .   S
    C204   O539      0.70346      .   S
    C153   O540      0.70078      .   S
    C154   O540      0.70078      .   S
    C153   O541      0.70077      .   S
    C158   O541      0.70077      .   S
    C198   O542      0.70074      .   S
    C199   O542      0.70074      .   S
    C198   O543      0.70077      .   S
    C203   O543      0.70077      .   S
    C161   O544      0.65858      .   S
    C231   O544      0.65858  1_455   S
    C206   O545      0.67409      .   S
    C234   O545      0.67409      .   S
    C254   O546      0.63643      .   S
    C166   O546      0.63643      .   S
    C269   O547      0.63648      .   S
    C211   O547      0.63648      .   S
    C199   O548      0.69505      .   S
    C200   O548      0.69505      .   S
    C154   O549      0.69514      .   S
    C155   O549      0.69514      .   S
    C211   O550      0.63657      .   S
    C270   O550      0.63657      .   S
    C166   O551      0.63661      .   S
    C255   O551      0.63661      .   S
    C51    O552      0.47273      .   S
    C158   O552      0.47273  1_455   S
    C87    O553      0.54477      .   S
    C203   O553      0.54477      .   S
    C158   O554      0.67855  1_455   S
    C157   O554      0.67855      .   S
    C203   O555      0.69595      .   S
    C202   O555      0.69595      .   S
    C245   O556      0.63660      .   S
    C136   O556      0.63660      .   S
    C260   O557      0.63657      .   S
    C181   O557      0.63657      .   S
    C85    O558      0.54514      .   S
    C200   O558      0.54514      .   S
    C49    O559      0.54515      .   S
    C155   O559      0.54515      .   S
    C155   O560      0.70383      .   S
    C156   O560      0.70383      .   S
    C200   O561      0.70378      .   S
    C201   O561      0.70378      .   S
    C270   O562      1.03548      .   S
    C5     O562      1.03548      .   S
    C255   O563      0.92943      .   S
    C0     O563      0.92943  1_655   S
    C157   O564      0.62968  1_655   S
    C156   O564      0.62968      .   S
    C157   O565      0.54532      .   S
    C50    O565      0.54532      .   S
    C202   O566      0.70374      .   S
    C201   O566      0.70374      .   S
    C202   O567      0.54535      .   S
    C86    O567      0.54535      .   S
    C156   O568      0.73850      .   S
    C159   O568      0.73850      .   S
    C201   O569      0.73842      .   S
    C204   O569      0.73842      .   S
    C159   O570      0.70234      .   S
    C163   O570      0.70234      .   S
    C204   O571      0.70237      .   S
    C208   O571      0.70237      .   S
    C0     O572      1.05924      .   S
    C231   O572      1.05924  1_455   S
    C5     O573      1.06191      .   S
    C234   O573      1.06191      .   S
    C231   O574      0.60216      .   S
    C162   O574      0.60216      .   S
    C234   O575      0.67336      .   S
    C207   O575      0.67336      .   S
    C71    O576      0.54870      .   S
    C182   O576      0.54870      .   S
    C35    O577      0.54871      .   S
    C137   O577      0.54871      .   S
    C163   O578      0.69396      .   S
    C162   O578      0.69396      .   S
    C163   O579      0.54430      .   S
    C55    O579      0.54430      .   S
    C208   O580      0.69393      .   S
    C207   O580      0.69393      .   S
    C208   O581      0.54429      .   S
    C91    O581      0.54429      .   S
    C162   O582      0.54438      .   S
    C54    O582      0.54438      .   S
    C207   O583      0.54434      .   S
    C90    O583      0.54434      .   S
    C181   O584      0.63656      .   S
    C259   O584      0.63656      .   S
    C136   O585      0.63652      .   S
    C244   O585      0.63652      .   S
    C182   O586      0.54982      .   S
    C70    O586      0.54982      .   S
    C137   O587      0.54982      .   S
    C34    O587      0.54982      .   S
    C238   O588      1.00948      .   S
    C0     O588      1.00948      .   S
    C243   O589      1.00943      .   S
    C1     O589      1.00943      .   S
    C248   O590      1.00758      .   S
    C2     O590      1.00758      .   S
    C253   O591      1.00749      .   S
    C3     O591      1.00749      .   S
    C258   O592      1.00964      .   S
    C4     O592      1.00964      .   S
    C263   O593      1.00934      .   S
    C5     O593      1.00934      .   S
    C268   O594      1.00761      .   S
    C6     O594      1.00761      .   S
    C273   O595      1.00733      .   S
    C7     O595      1.00733      .   S
