# CIF file generated by openbabel 2.4.90, see http://openbabel.sf.net
data_I
_chemical_name_common ''
_cell_length_a 15.133
_cell_length_b 17.678
_cell_length_c 17.678
_cell_angle_alpha 90
_cell_angle_beta 90
_cell_angle_gamma 90
_space_group_name_H-M_alt 'P 1'
_space_group_name_Hall 'P 1'
loop_
    _symmetry_equiv_pos_as_xyz
    x,y,z
loop_
    _atom_site_label
    _atom_site_type_symbol
    _atom_site_fract_x
    _atom_site_fract_y
    _atom_site_fract_z
    _atom_site_occupancy
    Zr0     Zr   0.98277   0.85845   0.90818   1.000
    Zr1     Zr   0.98426   0.15145   0.10127   1.000
    Zr2     Zr   0.02864   0.90919   0.15118   1.000
    Zr3     Zr   0.02904   0.10083   0.85828   1.000
    Zr4     Zr   0.47599   0.85887   0.10125   1.000
    Zr5     Zr   0.47635   0.15108   0.90820   1.000
    Zr6     Zr   0.53541   0.90880   0.85832   1.000
    Zr7     Zr   0.53693   0.10121   0.15119   1.000
    Zr8     Zr   0.75839   0.86154   0.86121   1.000
    Zr9     Zr   0.75991   0.14854   0.14817   1.000
    Zr10    Zr   0.25160   0.86192   0.14814   1.000
    Zr11    Zr   0.25198   0.14819   0.86123   1.000
    Zr12    Zr   0.89677   0.86638   0.74295   1.000
    Zr13    Zr   0.91957   0.88125   0.04940   1.000
    Zr14    Zr   0.89815   0.14366   0.26648   1.000
    Zr15    Zr   0.91983   0.12853   0.95997   1.000
    Zr16    Zr   0.11441   0.74351   0.14360   1.000
    Zr17    Zr   0.09333   0.04953   0.12863   1.000
    Zr18    Zr   0.11469   0.26656   0.86576   1.000
    Zr19    Zr   0.09161   0.96055   0.88092   1.000
    Zr20    Zr   0.38993   0.86668   0.26644   1.000
    Zr21    Zr   0.41148   0.88072   0.95995   1.000
    Zr22    Zr   0.39029   0.14339   0.74295   1.000
    Zr23    Zr   0.41317   0.12917   0.04945   1.000
    Zr24    Zr   0.62120   0.74315   0.86578   1.000
    Zr25    Zr   0.60009   0.04913   0.88088   1.000
    Zr26    Zr   0.62266   0.26694   0.14368   1.000
    Zr27    Zr   0.59950   0.96094   0.12856   1.000
    Zr28    Zr   0.95984   0.85833   0.78883   1.000
    Zr29    Zr   0.81375   0.86537   0.75818   1.000
    Zr30    Zr   0.99396   0.88092   0.01582   1.000
    Zr31    Zr   0.91261   0.89353   0.12017   1.000
    Zr32    Zr   0.96126   0.15163   0.22063   1.000
    Zr33    Zr   0.81515   0.14479   0.25120   1.000
    Zr34    Zr   0.99420   0.12903   0.99363   1.000
    Zr35    Zr   0.91297   0.11635   0.88923   1.000
    Zr36    Zr   0.05157   0.78961   0.15154   1.000
    Zr37    Zr   0.19748   0.75857   0.14475   1.000
    Zr38    Zr   0.01896   0.01589   0.12939   1.000
    Zr39    Zr   0.10027   0.12030   0.11667   1.000
    Zr40    Zr   0.05187   0.22041   0.85788   1.000
    Zr41    Zr   0.19777   0.25155   0.86460   1.000
    Zr42    Zr   0.01720   0.99412   0.88009   1.000
    Zr43    Zr   0.09865   0.88978   0.89286   1.000
    Zr44    Zr   0.45305   0.85867   0.22061   1.000
    Zr45    Zr   0.30693   0.86569   0.25115   1.000
    Zr46    Zr   0.48583   0.88037   0.99365   1.000
    Zr47    Zr   0.40462   0.89312   0.88925   1.000
    Zr48    Zr   0.45337   0.15133   0.78885   1.000
    Zr49    Zr   0.30728   0.14447   0.75817   1.000
    Zr50    Zr   0.48755   0.12957   0.01582   1.000
    Zr51    Zr   0.40622   0.11684   0.12016   1.000
    Zr52    Zr   0.55835   0.78925   0.85790   1.000
    Zr53    Zr   0.70426   0.75820   0.86458   1.000
    Zr54    Zr   0.52572   0.01548   0.88009   1.000
    Zr55    Zr   0.60703   0.11990   0.89283   1.000
    Zr56    Zr   0.55981   0.22082   0.15159   1.000
    Zr57    Zr   0.70574   0.25191   0.14480   1.000
    Zr58    Zr   0.52509   0.99451   0.12937   1.000
    Zr59    Zr   0.60655   0.89017   0.11663   1.000
    O60     O    0.45036   0.12937   0.03263   1.000
    O61     O    0.48195   0.14032   0.96201   1.000
    O62     O    0.95676   0.88108   0.03261   1.000
    O63     O    0.98836   0.86969   0.96200   1.000
    O64     O    0.91609   0.88739   0.08478   1.000
    O65     O    0.40970   0.12301   0.08480   1.000
    O66     O    0.54127   0.87452   0.10894   1.000
    O67     O    0.46452   0.85877   0.16093   1.000
    O68     O    0.48091   0.86962   0.04745   1.000
    O69     O    0.04227   0.13588   0.10897   1.000
    O70     O    0.97276   0.15154   0.16095   1.000
    O71     O    0.98923   0.14024   0.04745   1.000
    O72     O    0.60302   0.92556   0.12259   1.000
    O73     O    0.09680   0.08492   0.12265   1.000
    O74     O    0.47158   0.10903   0.13567   1.000
    O75     O    0.97063   0.90136   0.13568   1.000
    O76     O    0.56229   0.97773   0.12896   1.000
    O77     O    0.05615   0.03271   0.12901   1.000
    O78     O    0.53101   0.04786   0.14028   1.000
    O79     O    0.02380   0.96254   0.14028   1.000
    O80     O    0.15595   0.75104   0.14417   1.000
    O81     O    0.08299   0.76656   0.14757   1.000
    O82     O    0.66420   0.25942   0.14424   1.000
    O83     O    0.59124   0.24388   0.14764   1.000
    O84     O    0.22454   0.81025   0.14644   1.000
    O85     O    0.73282   0.20022   0.14649   1.000
    O86     O    0.27926   0.86380   0.19964   1.000
    O87     O    0.78753   0.14667   0.19968   1.000
    O88     O    0.04010   0.84940   0.15136   1.000
    O89     O    0.54837   0.16101   0.15139   1.000
    O90     O    0.42149   0.86268   0.24353   1.000
    O91     O    0.92970   0.14765   0.24356   1.000
    O92     O    0.34843   0.86618   0.25879   1.000
    O93     O    0.85665   0.14423   0.25884   1.000
    O94     O    0.85526   0.86587   0.75056   1.000
    O95     O    0.92830   0.86235   0.76589   1.000
    O96     O    0.34879   0.14393   0.75056   1.000
    O97     O    0.42183   0.14736   0.76590   1.000
    O98     O    0.27963   0.14633   0.80970   1.000
    O99     O    0.78607   0.86346   0.80970   1.000
    O100    O    0.97130   0.85839   0.84850   1.000
    O101    O    0.46486   0.15120   0.84852   1.000
    O102    O    0.04045   0.16062   0.85808   1.000
    O103    O    0.08328   0.24348   0.86182   1.000
    O104    O    0.54688   0.84903   0.85811   1.000
    O105    O    0.58977   0.76620   0.86184   1.000
    O106    O    0.02312   0.04747   0.86918   1.000
    O107    O    0.97101   0.10859   0.87376   1.000
    O108    O    0.53057   0.96214   0.86920   1.000
    O109    O    0.47001   0.90096   0.87378   1.000
    O110    O    0.73133   0.80987   0.86290   1.000
    O111    O    0.22488   0.19987   0.86292   1.000
    O112    O    0.66273   0.75068   0.86518   1.000
    O113    O    0.15623   0.25906   0.86518   1.000
    O114    O    0.05441   0.97733   0.88050   1.000
    O115    O    0.56291   0.03231   0.88048   1.000
    O116    O    0.60356   0.08451   0.88685   1.000
    O117    O    0.09513   0.92516   0.88689   1.000
    O118    O    0.91640   0.12244   0.92460   1.000
    O119    O    0.40805   0.88692   0.92460   1.000
    O120    O    0.54169   0.13549   0.90051   1.000
    O121    O    0.04071   0.87412   0.90052   1.000
    O122    O    0.44865   0.88055   0.97680   1.000
    O123    O    0.95702   0.12878   0.97680   1.000
    N124    N    0.96700   0.89984   0.46534   1.000
    O125    O    0.93763   0.88617   0.58365   1.000
    O126    O    0.99274   0.90517   0.33796   1.000
    N127    N    0.04401   0.46584   0.11030   1.000
    O128    O    0.01807   0.33836   0.10512   1.000
    O129    O    0.07343   0.58419   0.12391   1.000
    N130    N    0.30144   0.81549   0.99420   1.000
    O131    O    0.33556   0.84343   0.98709   1.000
    O132    O    0.30026   0.83966   0.05271   1.000
    O133    O    0.35636   0.83890   0.04099   1.000
    N134    N    0.46591   0.89980   0.54417   1.000
    O135    O    0.49560   0.90497   0.67157   1.000
    O136    O    0.43364   0.88628   0.42579   1.000
    N137    N    0.04363   0.54412   0.89901   1.000
    O138    O    0.07335   0.42582   0.88542   1.000
    O139    O    0.01751   0.67156   0.90424   1.000
    N140    N    0.54524   0.46548   0.89914   1.000
    O141    O    0.51587   0.33799   0.90434   1.000
    O142    O    0.57744   0.58383   0.88551   1.000
    N143    N    0.80902   0.81590   0.01397   1.000
    O144    O    0.80744   0.83966   0.95605   1.000
    O145    O    0.86354   0.83889   0.96779   1.000
    O146    O    0.84341   0.84393   0.02046   1.000
    N147    N    0.30248   0.19410   0.01408   1.000
    O148    O    0.30097   0.17016   0.95611   1.000
    O149    O    0.35706   0.17088   0.96785   1.000
    O150    O    0.33693   0.16627   0.02054   1.000
    N151    N    0.46685   0.11018   0.46504   1.000
    O152    O    0.49681   0.10501   0.33781   1.000
    O153    O    0.43432   0.12374   0.58350   1.000
    N154    N    0.54592   0.54451   0.11038   1.000
    O155    O    0.51607   0.67196   0.10515   1.000
    O156    O    0.57849   0.42621   0.12399   1.000
    N157    N    0.20279   0.99503   0.81692   1.000
    O158    O    0.20390   0.05305   0.84056   1.000
    O159    O    0.14816   0.04121   0.83982   1.000
    O160    O    0.16811   0.98765   0.84453   1.000
    N161    N    0.71064   0.99538   0.19260   1.000
    O162    O    0.67597   0.98793   0.16498   1.000
    O163    O    0.71177   0.05342   0.16892   1.000
    O164    O    0.65603   0.04158   0.16968   1.000
    N165    N    0.71056   0.01349   0.81663   1.000
    O166    O    0.67625   0.02004   0.84435   1.000
    O167    O    0.71097   0.95607   0.84041   1.000
    O168    O    0.65523   0.96789   0.83968   1.000
    N169    N    0.96789   0.11009   0.54413   1.000
    O170    O    0.93875   0.12381   0.42580   1.000
    O171    O    0.99342   0.10478   0.67152   1.000
    N172    N    0.20370   0.01381   0.19284   1.000
    O173    O    0.20415   0.95643   0.16903   1.000
    O174    O    0.14841   0.96825   0.16979   1.000
    O175    O    0.16943   0.02041   0.16516   1.000
    N176    N    0.80947   0.19350   0.99436   1.000
    O177    O    0.84374   0.16558   0.98717   1.000
    O178    O    0.80844   0.16990   0.05281   1.000
    O179    O    0.86453   0.17063   0.04109   1.000
loop_
    _geom_bond_atom_site_label_1
    _geom_bond_atom_site_label_2
    _geom_bond_distance
    _geom_bond_site_symmetry_2
    _ccdc_geom_bond_type
    Zr50   O60       0.63650      .   S
    Zr23   O60       0.63650      .   S
    Zr50   O61       0.97377  1_554   S
    Zr5    O61       0.97377      .   S
    Zr30   O62       0.63634      .   S
    Zr13   O62       0.63634      .   S
    Zr30   O63       0.97560  1_554   S
    Zr0    O63       0.97560      .   S
    Zr13   O64       0.63706      .   S
    Zr31   O64       0.63706      .   S
    Zr23   O65       0.63661      .   S
    Zr51   O65       0.63661      .   S
    Zr4    O66       1.03486      .   S
    Zr59   O66       1.03486      .   S
    Zr4    O67       1.06921      .   S
    Zr44   O67       1.06921      .   S
    Zr4    O68       0.97274      .   S
    Zr46   O68       0.97274  1_556   S
    Zr1    O69       0.92996  1_655   S
    Zr39   O69       0.92996      .   S
    Zr1    O70       1.06929      .   S
    Zr32   O70       1.06929      .   S
    Zr1    O71       0.97476      .   S
    Zr34   O71       0.97476  1_556   S
    Zr59   O72       0.63659      .   S
    Zr27   O72       0.63659      .   S
    Zr39   O73       0.63657      .   S
    Zr17   O73       0.63657      .   S
    Zr51   O74       1.03557      .   S
    Zr7    O74       1.03557      .   S
    Zr31   O75       0.93007      .   S
    Zr2    O75       0.93007  1_455   S
    Zr27   O76       0.63645      .   S
    Zr58   O76       0.63645      .   S
    Zr17   O77       0.63648      .   S
    Zr38   O77       0.63648      .   S
    Zr58   O78       0.96685  1_565   S
    Zr7    O78       0.96685      .   S
    Zr38   O79       0.96532  1_545   S
    Zr2    O79       0.96532      .   S
    Zr16   O80       0.64256      .   S
    Zr37   O80       0.64256      .   S
    Zr16   O81       0.63017      .   S
    Zr36   O81       0.63017      .   S
    Zr26   O82       0.64258      .   S
    Zr57   O82       0.64258      .   S
    Zr26   O83       0.63023      .   S
    Zr56   O83       0.63023      .   S
    Zr37   O84       1.00157      .   S
    Zr10   O84       1.00157      .   S
    Zr57   O85       1.00183      .   S
    Zr9    O85       1.00183      .   S
    Zr10   O86       1.00271      .   S
    Zr45   O86       1.00271      .   S
    Zr9    O87       1.00254      .   S
    Zr33   O87       1.00254      .   S
    Zr2    O88       1.07112      .   S
    Zr36   O88       1.07112      .   S
    Zr7    O89       1.07124      .   S
    Zr56   O89       1.07124      .   S
    Zr44   O90       0.63024      .   S
    Zr20   O90       0.63024      .   S
    Zr32   O91       0.63024      .   S
    Zr14   O91       0.63024      .   S
    Zr45   O92       0.64243      .   S
    Zr20   O92       0.64243      .   S
    Zr33   O93       0.64249      .   S
    Zr14   O93       0.64249      .   S
    Zr12   O94       0.64245      .   S
    Zr29   O94       0.64245      .   S
    Zr12   O95       0.63030      .   S
    Zr28   O95       0.63030      .   S
    Zr22   O96       0.64245      .   S
    Zr49   O96       0.64245      .   S
    Zr22   O97       0.63030      .   S
    Zr48   O97       0.63030      .   S
    Zr49   O98       1.00298      .   S
    Zr11   O98       1.00298      .   S
    Zr29   O99       1.00297      .   S
    Zr8    O99       1.00297      .   S
    Zr28   O100      1.06911      .   S
    Zr0    O100      1.06911      .   S
    Zr48   O101      1.06917      .   S
    Zr5    O101      1.06917      .   S
    Zr40   O102      1.07101      .   S
    Zr3    O102      1.07101      .   S
    Zr40   O103      0.63023      .   S
    Zr18   O103      0.63023      .   S
    Zr52   O104      1.07085      .   S
    Zr6    O104      1.07085      .   S
    Zr52   O105      0.63015      .   S
    Zr24   O105      0.63015      .   S
    Zr3    O106      0.96687      .   S
    Zr42   O106      0.96687  1_565   S
    Zr3    O107      0.93007  1_455   S
    Zr35   O107      0.93007      .   S
    Zr6    O108      0.96519      .   S
    Zr54   O108      0.96519  1_545   S
    Zr6    O109      1.03598      .   S
    Zr47   O109      1.03598      .   S
    Zr8    O110      1.00149      .   S
    Zr53   O110      1.00149      .   S
    Zr11   O111      1.00193      .   S
    Zr41   O111      1.00193      .   S
    Zr53   O112      0.64254      .   S
    Zr24   O112      0.64254      .   S
    Zr41   O113      0.64255      .   S
    Zr18   O113      0.64255      .   S
    Zr42   O114      0.63643      .   S
    Zr19   O114      0.63643      .   S
    Zr54   O115      0.63648      .   S
    Zr25   O115      0.63648      .   S
    Zr25   O116      0.63657      .   S
    Zr55   O116      0.63657      .   S
    Zr19   O117      0.63661      .   S
    Zr43   O117      0.63661      .   S
    Zr35   O118      0.63660      .   S
    Zr15   O118      0.63660      .   S
    Zr47   O119      0.63657      .   S
    Zr21   O119      0.63657      .   S
    Zr55   O120      1.03548      .   S
    Zr5    O120      1.03548      .   S
    Zr43   O121      0.92943      .   S
    Zr0    O121      0.92943  1_655   S
    Zr21   O122      0.63656      .   S
    Zr46   O122      0.63656      .   S
    Zr15   O123      0.63652      .   S
    Zr34   O123      0.63652      .   S
    N124   O125      2.15183      .   S
    Zr12   O125      2.90440      .   S
    N124   O126      2.28716      .   S
    Zr2    O126      3.34703  1_455   S
    N127   O128      2.28937      .   S
    Zr1    O128      3.34416  1_655   S
    N127   O129      2.15250      .   S
    Zr16   O129      2.90488      .   S
    N130   O131      0.72553      .   S
    Zr21   O131      1.40872      .   S
    N130   O132      1.11921  1_556   S
    Zr10   O132      1.88240      .   S
    N130   O133      1.24336  1_556   S
    Zr4    O133      2.13001      .   S
    N134   O135      2.29834      .   S
    Zr6    O135      3.35661      .   S
    N134   O136      2.16212      .   S
    Zr20   O136      2.91436      .   S
    N137   O138      2.15252      .   S
    Zr18   O138      2.90495      .   S
    N137   O139      2.28924      .   S
    Zr0    O139      3.34618  1_655   S
    N140   O141      2.29896      .   S
    Zr5    O141      3.35857      .   S
    N140   O142      2.16167      .   S
    Zr24   O142      2.91419      .   S
    N143   O144      1.10698  1_554   S
    Zr8    O144      1.87390      .   S
    N143   O145      1.22974  1_554   S
    Zr0    O145      2.11794      .   S
    N143   O146      0.72772      .   S
    Zr13   O146      1.42304      .   S
    N147   O148      1.10891  1_554   S
    Zr11   O148      1.87450      .   S
    N147   O149      1.23224  1_554   S
    Zr5    O149      2.11972      .   S
    N147   O150      0.72590      .   S
    Zr23   O150      1.42212      .   S
    N151   O152      2.29621      .   S
    Zr7    O152      3.35513      .   S
    N151   O153      2.16454      .   S
    Zr22   O153      2.91720      .   S
    N154   O155      2.29971      .   S
    Zr4    O155      3.36009      .   S
    N154   O156      2.16208      .   S
    Zr26   O156      2.91470      .   S
    N157   O158      1.10773  1_565   S
    Zr11   O158      1.86857      .   S
    N157   O159      1.23040  1_565   S
    Zr3    O159      2.11346      .   S
    N157   O160      0.72851      .   S
    Zr19   O160      1.40842      .   S
    N161   O162      0.72877      .   S
    Zr27   O162      1.40766      .   S
    N161   O163      1.10817  1_565   S
    Zr9    O163      1.86902      .   S
    N161   O164      1.23061  1_565   S
    Zr7    O164      2.11335      .   S
    N165   O166      0.72327      .   S
    Zr25   O166      1.41760      .   S
    N165   O167      1.09856  1_545   S
    Zr8    O167      1.85543      .   S
    N165   O168      1.23167  1_545   S
    Zr6    O168      2.11832      .   S
    N169   O170      2.15149      .   S
    Zr14   O170      2.90400      .   S
    N169   O171      2.28685      .   S
    Zr3    O171      3.34599  1_455   S
    N172   O173      1.09818  1_545   S
    Zr10   O173      1.85553      .   S
    N172   O174      1.23075  1_545   S
    Zr2    O174      2.11738      .   S
    N172   O175      0.72250      .   S
    Zr17   O175      1.41721      .   S
    N176   O177      0.72711      .   S
    Zr15   O177      1.40927      .   S
    N176   O178      1.11446  1_556   S
    Zr9    O178      1.87712      .   S
    N176   O179      1.24094  1_556   S
    Zr1    O179      2.12840      .   S
