# CIF file generated by openbabel 2.4.90, see http://openbabel.sf.net
data_I
_chemical_name_common ''
_cell_length_a 15.133
_cell_length_b 17.678
_cell_length_c 17.678
_cell_angle_alpha 90
_cell_angle_beta 90
_cell_angle_gamma 90
_space_group_name_H-M_alt 'P 1'
_space_group_name_Hall 'P 1'
loop_
    _symmetry_equiv_pos_as_xyz
    x,y,z
loop_
    _atom_site_label
    _atom_site_type_symbol
    _atom_site_fract_x
    _atom_site_fract_y
    _atom_site_fract_z
    _atom_site_occupancy
    Zr0     Zr   0.98277   0.85845   0.90818   1.000
    Zr1     Zr   0.98426   0.15145   0.10127   1.000
    Zr2     Zr   0.02864   0.90919   0.15118   1.000
    Zr3     Zr   0.02904   0.10083   0.85828   1.000
    Zr4     Zr   0.47599   0.85887   0.10125   1.000
    Zr5     Zr   0.47635   0.15108   0.90820   1.000
    Zr6     Zr   0.53541   0.90880   0.85832   1.000
    Zr7     Zr   0.53693   0.10121   0.15119   1.000
    Zr8     Zr   0.75839   0.86154   0.86121   1.000
    Zr9     Zr   0.75991   0.14854   0.14817   1.000
    Zr10    Zr   0.25160   0.86192   0.14814   1.000
    Zr11    Zr   0.25198   0.14819   0.86123   1.000
    N12     N    0.96700   0.89984   0.46534   1.000
    O13     O    0.99274   0.90517   0.33796   1.000
    N14     N    0.04401   0.46584   0.11030   1.000
    O15     O    0.01807   0.33836   0.10512   1.000
    N16     N    0.30144   0.81549   0.99420   1.000
    O17     O    0.30026   0.83966   0.05271   1.000
    O18     O    0.35636   0.83890   0.04099   1.000
    N19     N    0.46591   0.89980   0.54417   1.000
    O20     O    0.49560   0.90497   0.67157   1.000
    N21     N    0.04363   0.54412   0.89901   1.000
    O22     O    0.01751   0.67156   0.90424   1.000
    N23     N    0.54524   0.46548   0.89914   1.000
    O24     O    0.51587   0.33799   0.90434   1.000
    N25     N    0.80902   0.81590   0.01397   1.000
    O26     O    0.80744   0.83966   0.95605   1.000
    O27     O    0.86354   0.83889   0.96779   1.000
    N28     N    0.30248   0.19410   0.01408   1.000
    O29     O    0.30097   0.17016   0.95611   1.000
    O30     O    0.35706   0.17088   0.96785   1.000
    N31     N    0.46685   0.11018   0.46504   1.000
    O32     O    0.49681   0.10501   0.33781   1.000
    N33     N    0.54592   0.54451   0.11038   1.000
    O34     O    0.51607   0.67196   0.10515   1.000
    N35     N    0.20279   0.99503   0.81692   1.000
    O36     O    0.20390   0.05305   0.84056   1.000
    O37     O    0.14816   0.04121   0.83982   1.000
    N38     N    0.71064   0.99538   0.19260   1.000
    O39     O    0.71177   0.05342   0.16892   1.000
    O40     O    0.65603   0.04158   0.16968   1.000
    N41     N    0.71056   0.01349   0.81663   1.000
    O42     O    0.71097   0.95607   0.84041   1.000
    O43     O    0.65523   0.96789   0.83968   1.000
    N44     N    0.96789   0.11009   0.54413   1.000
    O45     O    0.99342   0.10478   0.67152   1.000
    N46     N    0.20370   0.01381   0.19284   1.000
    O47     O    0.20415   0.95643   0.16903   1.000
    O48     O    0.14841   0.96825   0.16979   1.000
    N49     N    0.80947   0.19350   0.99436   1.000
    O50     O    0.80844   0.16990   0.05281   1.000
    O51     O    0.86453   0.17063   0.04109   1.000
    C52     C    0.94205   0.88523   0.06180   1.000
    O53     O    0.95634   0.89330   0.09874   1.000
    O54     O    0.96520   0.87746   0.01190   1.000
    O55     O    0.89273   0.86458   0.04113   1.000
    C56     C    0.38330   0.86368   0.24607   1.000
    O57     O    0.40847   0.87498   0.33593   1.000
    O58     O    0.42391   0.86122   0.20350   1.000
    O59     O    0.33128   0.86374   0.22286   1.000
    C60     C    0.07086   0.06191   0.12490   1.000
    O61     O    0.05656   0.09889   0.11693   1.000
    O62     O    0.04733   0.01222   0.13259   1.000
    O63     O    0.12015   0.04116   0.14503   1.000
    C64     C    0.89012   0.86336   0.76332   1.000
    O65     O    0.93071   0.86087   0.80591   1.000
    O66     O    0.91388   0.87476   0.67348   1.000
    O67     O    0.83810   0.86341   0.78651   1.000
    C68     C    0.43565   0.12519   0.06181   1.000
    O69     O    0.45880   0.13276   0.01191   1.000
    O70     O    0.38629   0.14573   0.04117   1.000
    O71     O    0.45361   0.11711   0.09874   1.000
    C72     C    0.94233   0.12463   0.94761   1.000
    O73     O    0.95667   0.11661   0.91068   1.000
    O74     O    0.96578   0.13244   0.99753   1.000
    O75     O    0.89304   0.14511   0.96739   1.000
    C76     C    0.57762   0.06150   0.88460   1.000
    O77     O    0.62693   0.04077   0.86447   1.000
    O78     O    0.55965   0.09850   0.89256   1.000
    O79     O    0.55409   0.01182   0.87690   1.000
    C80     C    0.57704   0.94854   0.12485   1.000
    O81     O    0.55403   0.99820   0.13257   1.000
    O82     O    0.62651   0.96823   0.14492   1.000
    O83     O    0.55916   0.91153   0.11690   1.000
    C84     C    0.62794   0.76353   0.86275   1.000
    O85     O    0.67963   0.78670   0.86282   1.000
    O86     O    0.58741   0.80628   0.86043   1.000
    O87     O    0.60269   0.67368   0.87413   1.000
    C88     C    0.43397   0.88474   0.94762   1.000
    O89     O    0.38477   0.86408   0.96735   1.000
    O90     O    0.45199   0.89285   0.91070   1.000
    O91     O    0.45744   0.87718   0.99753   1.000
    C92     C    0.89152   0.14670   0.24610   1.000
    O93     O    0.83952   0.14668   0.22289   1.000
    O94     O    0.93214   0.14912   0.20353   1.000
    O95     O    0.91513   0.13525   0.33595   1.000
    C96     C    0.62940   0.24655   0.14669   1.000
    O97     O    0.68111   0.22339   0.14659   1.000
    O98     O    0.58889   0.20378   0.14904   1.000
    O99     O    0.60395   0.33638   0.13534   1.000
    C100    C    0.38365   0.14639   0.76332   1.000
    O101    O    0.33164   0.14636   0.78651   1.000
    O102    O    0.40898   0.13507   0.67341   1.000
    O103    O    0.42425   0.14880   0.80592   1.000
    C104    C    0.12144   0.24617   0.86275   1.000
    O105    O    0.08095   0.20340   0.86041   1.000
    O106    O    0.09740   0.33600   0.87409   1.000
    O107    O    0.17316   0.22302   0.86283   1.000
    C108    C    0.12115   0.76390   0.14663   1.000
    O109    O    0.17285   0.78707   0.14654   1.000
    O110    O    0.09729   0.67404   0.13527   1.000
    O111    O    0.08063   0.80665   0.14900   1.000
    C112    C    0.06916   0.94815   0.88462   1.000
    O113    O    0.05493   0.91113   0.89257   1.000
    O114    O    0.11863   0.96790   0.86458   1.000
    O115    O    0.04614   0.99781   0.87690   1.000
loop_
    _geom_bond_atom_site_label_1
    _geom_bond_atom_site_label_2
    _geom_bond_distance
    _geom_bond_site_symmetry_2
    _ccdc_geom_bond_type
    N12    O13       2.28716      .   S
    Zr2    O13       3.34703  1_455   S
    N14    O15       2.28937      .   S
    Zr1    O15       3.34416  1_655   S
    N16    O17       1.11921  1_556   S
    Zr10   O17       1.88240      .   S
    N16    O18       1.24336  1_556   S
    Zr4    O18       2.13001      .   S
    N19    O20       2.29834      .   S
    Zr6    O20       3.35661      .   S
    N21    O22       2.28924      .   S
    Zr0    O22       3.34618  1_655   S
    N23    O24       2.29896      .   S
    Zr5    O24       3.35857      .   S
    N25    O26       1.10698  1_554   S
    Zr8    O26       1.87390      .   S
    N25    O27       1.22974  1_554   S
    Zr0    O27       2.11794      .   S
    N28    O29       1.10891  1_554   S
    Zr11   O29       1.87450      .   S
    N28    O30       1.23224  1_554   S
    Zr5    O30       2.11972      .   S
    N31    O32       2.29621      .   S
    Zr7    O32       3.35513      .   S
    N33    O34       2.29971      .   S
    Zr4    O34       3.36009      .   S
    N35    O36       1.10773  1_565   S
    Zr11   O36       1.86857      .   S
    N35    O37       1.23040  1_565   S
    Zr3    O37       2.11346      .   S
    N38    O39       1.10817  1_565   S
    Zr9    O39       1.86902      .   S
    N38    O40       1.23061  1_565   S
    Zr7    O40       2.11335      .   S
    N41    O42       1.09856  1_545   S
    Zr8    O42       1.85543      .   S
    N41    O43       1.23167  1_545   S
    Zr6    O43       2.11832      .   S
    N44    O45       2.28685      .   S
    Zr3    O45       3.34599  1_455   S
    N46    O47       1.09818  1_545   S
    Zr10   O47       1.85553      .   S
    N46    O48       1.23075  1_545   S
    Zr2    O48       2.11738      .   S
    N49    O50       1.11446  1_556   S
    Zr9    O50       1.87712      .   S
    N49    O51       1.24094  1_556   S
    Zr1    O51       2.12840      .   S
    C52    O53       0.70251      .   S
    Zr2    O53       1.46142  1_455   S
    C52    O54       0.95907      .   S
    Zr0    O54       1.88292  1_556   S
    C52    O55       0.90760      .   S
    N25    O55       1.60493      .   S
    C56    O57       1.64580      .   S
    N19    O57       3.80785      .   S
    C56    O58       0.97253      .   S
    Zr4    O58       1.97234      .   S
    C56    O59       0.88772      .   S
    Zr10   O59       1.78879      .   S
    C60    O61       0.70291      .   S
    Zr1    O61       1.46185  1_655   S
    C60    O62       0.95743      .   S
    Zr2    O62       1.87227  1_565   S
    C60    O63       0.90419      .   S
    N46    O63       1.59595      .   S
    C64    O65       0.97273      .   S
    Zr0    O65       1.97253      .   S
    C64    O66       1.64074      .   S
    N12    O66       3.79244      .   S
    C64    O67       0.88760      .   S
    Zr8    O67       1.78883      .   S
    C68    O69       0.95853      .   S
    Zr5    O69       1.88061  1_556   S
    C68    O70       0.90710      .   S
    N28    O70       1.60288      .   S
    C68    O71       0.72152      .   S
    Zr7    O71       1.59006      .   S
    C72    O73       0.70238      .   S
    Zr3    O73       1.46135  1_455   S
    C72    O74       0.96111      .   S
    Zr1    O74       1.88533  1_554   S
    C72    O75       0.89986      .   S
    N49    O75       1.59945      .   S
    C76    O77       0.90434      .   S
    N41    O77       1.59674      .   S
    C76    O78       0.72204      .   S
    Zr5    O78       1.59056      .   S
    C76    O79       0.95737      .   S
    Zr6    O79       1.87207  1_565   S
    C80    O81       0.95427      .   S
    Zr7    O81       1.86859  1_545   S
    C80    O82       0.89851      .   S
    N38    O82       1.60063      .   S
    C80    O83       0.72189      .   S
    Zr4    O83       1.58971      .   S
    C84    O85       0.88305      .   S
    Zr8    O85       1.78095      .   S
    C84    O86       0.97411      .   S
    Zr6    O86       1.97617      .   S
    C84    O87       1.64608      .   S
    N23    O87       3.80767      .   S
    C88    O89       0.89973      .   S
    N16    O89       1.59792      .   S
    C88    O90       0.72167      .   S
    Zr6    O90       1.59071      .   S
    C88    O91       0.96054      .   S
    Zr4    O91       1.88290  1_554   S
    C92    O93       0.88737      .   S
    Zr9    O93       1.78814      .   S
    C92    O94       0.97275      .   S
    Zr1    O94       1.97274      .   S
    C92    O95       1.64058      .   S
    N44    O95       3.79193      .   S
    C96    O97       0.88321      .   S
    Zr9    O97       1.78142      .   S
    C96    O98       0.97431      .   S
    Zr7    O98       1.97672      .   S
    C96    O99       1.64631      .   S
    N33    O99       3.80832      .   S
    C100   O101      0.88739      .   S
    Zr11   O101      1.78853      .   S
    C100   O102      1.64728      .   S
    N31    O102      3.81175      .   S
    C100   O103      0.97290      .   S
    Zr5    O103      1.97284      .   S
    C104   O105      0.97421      .   S
    Zr3    O105      1.97639      .   S
    C104   O106      1.64133      .   S
    N21    O106      3.79372      .   S
    C104   O107      0.88318      .   S
    Zr11   O107      1.78149      .   S
    C108   O109      0.88304      .   S
    Zr10   O109      1.78100      .   S
    C108   O110      1.64131      .   S
    N14    O110      3.79367      .   S
    C108   O111      0.97420      .   S
    Zr2    O111      1.97650      .   S
    C112   O113      0.70304      .   S
    Zr0    O113      1.46149  1_655   S
    C112   O114      0.89896      .   S
    N35    O114      1.60058      .   S
    C112   O115      0.95430      .   S
    Zr3    O115      1.86866  1_545   S
