# CIF file generated by openbabel 2.4.90, see http://openbabel.sf.net
data_I
_chemical_name_common ''
_cell_length_a 20.243
_cell_length_b 22.896
_cell_length_c 13.99
_cell_angle_alpha 90.005
_cell_angle_beta 100.938
_cell_angle_gamma 89.996
_space_group_name_H-M_alt 'P 1'
_space_group_name_Hall 'P 1'
loop_
    _symmetry_equiv_pos_as_xyz
    x,y,z
loop_
    _atom_site_label
    _atom_site_type_symbol
    _atom_site_fract_x
    _atom_site_fract_y
    _atom_site_fract_z
    _atom_site_occupancy
    N0      N    0.81036   0.75000   0.40448   1.000
    N1      N    0.81036   0.25000   0.40448   1.000
    N2      N    0.18965   0.25000   0.59546   1.000
    N3      N    0.18965   0.75000   0.59547   1.000
    N4      N    0.00000   0.99999   0.99998   1.000
    N5      N    0.00001   0.50000   0.99998   1.000
    N6      N    0.50000   0.50000   0.99995   1.000
    N7      N    0.50001   0.99999   0.99996   1.000
    N8      N    0.68965   0.75000   0.59548   1.000
    N9      N    0.68965   0.25000   0.59547   1.000
    N10     N    0.31036   0.75000   0.40444   1.000
    N11     N    0.31036   0.25000   0.40447   1.000
    Zr12    Zr   0.18637   0.00000   0.60058   1.000
    O13     O    0.18760   0.07428   0.59865   1.000
    O14     O    0.27677   1.00000   0.71120   1.000
    O15     O    0.18760   0.92572   0.59865   1.000
    Zr16    Zr   0.18637   0.50000   0.60058   1.000
    O17     O    0.18760   0.42572   0.59864   1.000
    O18     O    0.18760   0.57428   0.59865   1.000
    O19     O    0.27677   0.50000   0.71120   1.000
    Zr20    Zr   0.68637   0.00000   0.60058   1.000
    O21     O    0.68760   0.92572   0.59865   1.000
    O22     O    0.77677   1.00000   0.71120   1.000
    O23     O    0.68760   0.07428   0.59865   1.000
    Zr24    Zr   0.81364   0.50000   0.39938   1.000
    O25     O    0.72324   0.50000   0.28875   1.000
    O26     O    0.81241   0.42572   0.40131   1.000
    O27     O    0.81241   0.57428   0.40131   1.000
    Zr28    Zr   0.68637   0.50000   0.60058   1.000
    O29     O    0.77677   0.50000   0.71120   1.000
    O30     O    0.68760   0.57428   0.59865   1.000
    O31     O    0.68760   0.42572   0.59865   1.000
    Zr32    Zr   0.31364   1.00000   0.39939   1.000
    O33     O    0.22324   1.00000   0.28876   1.000
    O34     O    0.31241   0.92572   0.40131   1.000
    O35     O    0.31241   0.07428   0.40132   1.000
    Zr36    Zr   0.31363   0.50000   0.39939   1.000
    O37     O    0.22324   0.50000   0.28876   1.000
    O38     O    0.31240   0.57428   0.40131   1.000
    O39     O    0.31241   0.42572   0.40132   1.000
    Zr40    Zr   0.81364   1.00000   0.39940   1.000
    O41     O    0.72324   1.00000   0.28876   1.000
    O42     O    0.81241   0.07428   0.40133   1.000
    O43     O    0.81241   0.92572   0.40133   1.000
    O44     O    0.13124   0.50000   0.69953   1.000
    O45     O    0.13406   1.00000   0.69494   1.000
    O46     O    0.86676   0.50000   0.29579   1.000
    O47     O    0.36594   1.00000   0.30497   1.000
    O48     O    0.63124   1.00000   0.69952   1.000
    O49     O    0.86594   1.00000   0.30503   1.000
    O50     O    0.63325   0.50000   0.70416   1.000
    O51     O    0.36676   0.50000   0.29579   1.000
loop_
    _geom_bond_atom_site_label_1
    _geom_bond_atom_site_label_2
    _geom_bond_distance
    _geom_bond_site_symmetry_2
    _ccdc_geom_bond_type
    Zr12   O13       1.70121      .   S
    N2     O13       4.02382      .   S
    Zr12   O14       2.16077  1_545   S
    N7     O14       5.46018      .   S
    Zr12   O15       1.70117  1_545   S
    N3     O15       4.02376      .   S
    Zr16   O17       1.70122      .   S
    N2     O17       4.02384      .   S
    Zr16   O18       1.70122      .   S
    N3     O18       4.02384      .   S
    Zr16   O19       2.16071      .   S
    N6     O19       5.46005      .   S
    Zr20   O21       1.70118  1_545   S
    N8     O21       4.02377      .   S
    Zr20   O22       2.16078  1_545   S
    N4     O22       5.46026  1_455   S
    Zr20   O23       1.70121      .   S
    N9     O23       4.02384      .   S
    Zr24   O25       2.16085      .   S
    N6     O25       5.46044  1_556   S
    Zr24   O26       1.70121      .   S
    N1     O26       4.02383      .   S
    Zr24   O27       1.70119      .   S
    N0     O27       4.02380      .   S
    Zr28   O29       2.16077      .   S
    N5     O29       5.46023  1_455   S
    Zr28   O30       1.70121      .   S
    N8     O30       4.02383      .   S
    Zr28   O31       1.70121      .   S
    N9     O31       4.02382      .   S
    Zr32   O33       2.16080      .   S
    N4     O33       5.46030  1_556   S
    Zr32   O34       1.70117      .   S
    N10    O34       4.02376      .   S
    Zr32   O35       1.70120  1_565   S
    N11    O35       4.02381      .   S
    Zr36   O37       2.16079      .   S
    N5     O37       5.46026  1_556   S
    Zr36   O38       1.70121      .   S
    N10    O38       4.02383      .   S
    Zr36   O39       1.70122      .   S
    N11    O39       4.02384      .   S
    Zr40   O41       2.16087      .   S
    N7     O41       5.46050  1_556   S
    Zr40   O42       1.70122  1_565   S
    N1     O42       4.02384      .   S
    Zr40   O43       1.70118      .   S
    N0     O43       4.02378      .   S
    Zr16   O44       1.93595      .   S
    N5     O44       5.38171      .   S
    N4     O45       5.47463      .   S
    Zr12   O45       1.84232  1_545   S
    Zr24   O46       1.96170      .   S
    N5     O46       5.35141  1_456   S
    N7     O47       5.47434  1_556   S
    Zr32   O47       1.84300      .   S
    N7     O48       5.38150      .   S
    Zr20   O48       1.93590  1_545   S
    Zr40   O49       1.84236      .   S
    N4     O49       5.47469  1_456   S
    N6     O50       5.35116      .   S
    Zr28   O50       1.96163      .   S
    N6     O51       5.35171  1_556   S
    Zr36   O51       1.96181      .   S
