# CIF file generated by openbabel 2.4.90, see http://openbabel.sf.net
data_I
_chemical_name_common ''
_cell_length_a 20.243
_cell_length_b 22.896
_cell_length_c 13.99
_cell_angle_alpha 90.005
_cell_angle_beta 100.938
_cell_angle_gamma 89.996
_space_group_name_H-M_alt 'P 1'
_space_group_name_Hall 'P 1'
loop_
    _symmetry_equiv_pos_as_xyz
    x,y,z
loop_
    _atom_site_label
    _atom_site_type_symbol
    _atom_site_fract_x
    _atom_site_fract_y
    _atom_site_fract_z
    _atom_site_occupancy
    C0      C    0.18637   0.00000   0.60058   1.000
    C1      C    0.18637   0.50000   0.60058   1.000
    C2      C    0.68637   0.00000   0.60058   1.000
    C3      C    0.68637   0.50000   0.60058   1.000
    C4      C    0.31364   1.00000   0.39939   1.000
    C5      C    0.31363   0.50000   0.39939   1.000
    C6      C    0.81364   1.00000   0.39940   1.000
    C7      C    0.81364   0.50000   0.39938   1.000
    C8      C    0.25244   0.40186   0.72998   1.000
    C9      C    0.25243   0.90186   0.73000   1.000
    C10     C    0.75251   0.40186   0.72994   1.000
    C11     C    0.75243   0.90186   0.73000   1.000
    C12     C    0.25603   0.29370   0.73673   1.000
    C13     C    0.25602   0.79371   0.73670   1.000
    C14     C    0.75612   0.29370   0.73667   1.000
    C15     C    0.75601   0.79371   0.73675   1.000
    C16     C    0.12360   0.29353   0.45422   1.000
    C17     C    0.12361   0.79353   0.45420   1.000
    C18     C    0.62352   0.29353   0.45400   1.000
    C19     C    0.62363   0.79353   0.45420   1.000
    C20     C    0.12571   0.40151   0.46162   1.000
    C21     C    0.12573   0.90151   0.46161   1.000
    C22     C    0.62565   0.40151   0.46168   1.000
    C23     C    0.62574   0.90151   0.46160   1.000
    C24     C    0.24758   0.40185   0.26990   1.000
    C25     C    0.24763   0.90186   0.26995   1.000
    C26     C    0.74756   0.40185   0.26999   1.000
    C27     C    0.74773   0.90186   0.26988   1.000
    C28     C    0.24398   0.29369   0.26323   1.000
    C29     C    0.24404   0.79370   0.26319   1.000
    C30     C    0.74395   0.29370   0.26326   1.000
    C31     C    0.74417   0.79370   0.26310   1.000
    C32     C    0.37640   0.29354   0.54570   1.000
    C33     C    0.37636   0.79354   0.54500   1.000
    C34     C    0.87644   0.29354   0.54573   1.000
    C35     C    0.87624   0.79353   0.54590   1.000
    C36     C    0.37429   0.40152   0.53835   1.000
    C37     C    0.37426   0.90152   0.53839   1.000
    C38     C    0.87433   0.40152   0.53832   1.000
    C39     C    0.87416   0.90151   0.53848   1.000
    C40     C    0.24753   0.09814   0.27002   1.000
    C41     C    0.24749   0.59814   0.27005   1.000
    C42     C    0.74756   0.09814   0.27000   1.000
    C43     C    0.74738   0.59815   0.27012   1.000
    C44     C    0.24392   0.20630   0.26320   1.000
    C45     C    0.24387   0.70630   0.26332   1.000
    C46     C    0.74397   0.20630   0.26325   1.000
    C47     C    0.74374   0.70630   0.26343   1.000
    C48     C    0.37646   0.20647   0.54571   1.000
    C49     C    0.37651   0.70647   0.54567   1.000
    C50     C    0.87642   0.20647   0.54574   1.000
    C51     C    0.87665   0.70647   0.54550   1.000
    C52     C    0.37434   0.09849   0.53832   1.000
    C53     C    0.37438   0.59849   0.53828   1.000
    C54     C    0.87430   0.09849   0.53835   1.000
    C55     C    0.87449   0.59848   0.53818   1.000
    C56     C    0.25247   0.09815   0.72997   1.000
    C57     C    0.25247   0.59815   0.72990   1.000
    C58     C    0.75240   0.09814   0.73002   1.000
    C59     C    0.75248   0.59815   0.72996   1.000
    C60     C    0.25608   0.20630   0.73600   1.000
    C61     C    0.25608   0.70631   0.73670   1.000
    C62     C    0.75599   0.20630   0.73670   1.000
    C63     C    0.75610   0.70631   0.73668   1.000
    C64     C    0.12354   0.20646   0.45427   1.000
    C65     C    0.12355   0.70647   0.45420   1.000
    C66     C    0.62364   0.20647   0.45400   1.000
    C67     C    0.62353   0.70646   0.45428   1.000
    C68     C    0.12566   0.09848   0.46167   1.000
    C69     C    0.12567   0.59849   0.46166   1.000
    C70     C    0.62573   0.09849   0.46160   1.000
    C71     C    0.62565   0.59848   0.46168   1.000
    C72     C    0.45598   0.99999   0.59000   1.000
    C73     C    0.45598   0.50001   0.59006   1.000
    C74     C    0.95598   0.99999   0.59007   1.000
    C75     C    0.95599   0.49999   0.59006   1.000
    C76     C    0.07902   0.99999   0.87703   1.000
    C77     C    0.07903   0.50001   0.87703   1.000
    C78     C    0.57903   0.99998   0.87703   1.000
    C79     C    0.57903   0.50001   0.87703   1.000
    C80     C    0.36270   0.99998   0.84330   1.000
    C81     C    0.36270   0.50001   0.84330   1.000
    C82     C    0.86270   0.99999   0.84331   1.000
    C83     C    0.86270   0.50002   0.84329   1.000
    C84     C    0.04403   0.99999   0.40991   1.000
    C85     C    0.04403   0.49999   0.40990   1.000
    C86     C    0.54404   0.99999   0.40991   1.000
    C87     C    0.54402   0.50001   0.40991   1.000
    C88     C    0.42098   0.99999   0.12290   1.000
    C89     C    0.42098   0.50000   0.12294   1.000
    C90     C    0.92098   0.99999   0.12295   1.000
    C91     C    0.92098   0.50001   0.12290   1.000
    C92     C    0.13731   0.99999   0.15668   1.000
    C93     C    0.13731   0.50000   0.15667   1.000
    C94     C    0.63731   0.99999   0.15667   1.000
    C95     C    0.63731   0.50000   0.15660   1.000
    C96     C    0.22487   0.37554   0.67065   1.000
    C97     C    0.22486   0.87555   0.67066   1.000
    C98     C    0.72491   0.37554   0.67063   1.000
    C99     C    0.72486   0.87555   0.67066   1.000
    C100    C    0.22642   0.31488   0.67314   1.000
    C101    C    0.22641   0.81489   0.67315   1.000
    C102    C    0.72647   0.31488   0.67311   1.000
    C103    C    0.72641   0.81488   0.67315   1.000
    C104    C    0.19019   0.28242   0.59519   1.000
    C105    C    0.19019   0.78242   0.59519   1.000
    C106    C    0.69020   0.28242   0.59519   1.000
    C107    C    0.69020   0.78242   0.59519   1.000
    C108    C    0.15341   0.31478   0.51757   1.000
    C109    C    0.15342   0.81478   0.51756   1.000
    C110    C    0.65337   0.31478   0.51761   1.000
    C111    C    0.65343   0.81478   0.51756   1.000
    C112    C    0.15417   0.37542   0.52046   1.000
    C113    C    0.15418   0.87542   0.52046   1.000
    C114    C    0.65414   0.37542   0.52050   1.000
    C115    C    0.65419   0.87542   0.52045   1.000
    C116    C    0.27515   0.37554   0.32931   1.000
    C117    C    0.27518   0.87554   0.32929   1.000
    C118    C    0.77514   0.37554   0.32932   1.000
    C119    C    0.77524   0.87554   0.32926   1.000
    C120    C    0.27359   0.31488   0.32683   1.000
    C121    C    0.27362   0.81488   0.32681   1.000
    C122    C    0.77358   0.31488   0.32684   1.000
    C123    C    0.77369   0.81488   0.32676   1.000
    C124    C    0.30981   0.28242   0.40478   1.000
    C125    C    0.30982   0.78243   0.40478   1.000
    C126    C    0.80982   0.28242   0.40478   1.000
    C127    C    0.80982   0.78242   0.40478   1.000
    C128    C    0.34659   0.31479   0.48241   1.000
    C129    C    0.34657   0.81479   0.48243   1.000
    C130    C    0.84662   0.31479   0.48239   1.000
    C131    C    0.84651   0.81478   0.48249   1.000
    C132    C    0.34584   0.37542   0.47951   1.000
    C133    C    0.34582   0.87542   0.47953   1.000
    C134    C    0.84586   0.37542   0.47949   1.000
    C135    C    0.84577   0.87542   0.47958   1.000
    C136    C    0.27512   0.12446   0.32934   1.000
    C137    C    0.27509   0.62446   0.32930   1.000
    C138    C    0.77514   0.12446   0.32933   1.000
    C139    C    0.77504   0.62446   0.32939   1.000
    C140    C    0.27356   0.18512   0.32685   1.000
    C141    C    0.27354   0.68512   0.32687   1.000
    C142    C    0.77359   0.18512   0.32684   1.000
    C143    C    0.77348   0.68512   0.32692   1.000
    C144    C    0.30981   0.21758   0.40478   1.000
    C145    C    0.30981   0.71758   0.40478   1.000
    C146    C    0.80982   0.21758   0.40478   1.000
    C147    C    0.80982   0.71758   0.40478   1.000
    C148    C    0.34662   0.18522   0.48238   1.000
    C149    C    0.34665   0.68522   0.48236   1.000
    C150    C    0.84660   0.18522   0.48241   1.000
    C151    C    0.84673   0.68522   0.48230   1.000
    C152    C    0.34586   0.12458   0.47949   1.000
    C153    C    0.34588   0.62458   0.47947   1.000
    C154    C    0.84584   0.12458   0.47951   1.000
    C155    C    0.84595   0.62458   0.47941   1.000
    C156    C    0.22488   0.12446   0.67065   1.000
    C157    C    0.22488   0.62446   0.67064   1.000
    C158    C    0.72484   0.12446   0.67067   1.000
    C159    C    0.72489   0.62446   0.67064   1.000
    C160    C    0.22644   0.18512   0.67313   1.000
    C161    C    0.22644   0.68512   0.67313   1.000
    C162    C    0.72640   0.18512   0.67316   1.000
    C163    C    0.72645   0.68512   0.67312   1.000
    C164    C    0.19019   0.21758   0.59520   1.000
    C165    C    0.19019   0.71758   0.59500   1.000
    C166    C    0.69019   0.21758   0.59519   1.000
    C167    C    0.69020   0.71758   0.59500   1.000
    C168    C    0.15338   0.18521   0.51760   1.000
    C169    C    0.15338   0.68522   0.51759   1.000
    C170    C    0.65343   0.18522   0.51756   1.000
    C171    C    0.65337   0.68522   0.51760   1.000
    C172    C    0.15414   0.12458   0.52050   1.000
    C173    C    0.15414   0.62458   0.52049   1.000
    C174    C    0.65418   0.12458   0.52045   1.000
    C175    C    0.65414   0.62458   0.52050   1.000
    C176    C    0.33322   1.00000   0.64486   1.000
    C177    C    0.33322   0.50001   0.64480   1.000
    C178    C    0.83322   1.00000   0.64486   1.000
    C179    C    0.83323   0.50000   0.64485   1.000
    C180    C    0.40164   0.99999   0.70960   1.000
    C181    C    0.40164   0.50001   0.70960   1.000
    C182    C    0.90164   1.00000   0.70961   1.000
    C183    C    0.90165   0.50001   0.70960   1.000
    C184    C    0.45980   0.99999   0.66890   1.000
    C185    C    0.45980   0.50001   0.66800   1.000
    C186    C    0.95980   0.99999   0.66890   1.000
    C187    C    0.95981   0.50000   0.66889   1.000
    C188    C    0.02366   0.99999   0.72950   1.000
    C189    C    0.02367   0.50000   0.72952   1.000
    C190    C    0.52367   0.99999   0.72952   1.000
    C191    C    0.52367   0.50001   0.72952   1.000
    C192    C    0.08609   0.99998   0.68598   1.000
    C193    C    0.08611   0.50000   0.68598   1.000
    C194    C    0.58610   0.99999   0.68598   1.000
    C195    C    0.58610   0.50001   0.68598   1.000
    C196    C    0.02940   0.99999   0.83052   1.000
    C197    C    0.02941   0.50001   0.83050   1.000
    C198    C    0.52941   0.99999   0.83052   1.000
    C199    C    0.52941   0.50000   0.83052   1.000
    C200    C    0.47121   0.99998   0.87170   1.000
    C201    C    0.47121   0.50001   0.87170   1.000
    C202    C    0.97121   0.99999   0.87171   1.000
    C203    C    0.97122   0.50002   0.87170   1.000
    C204    C    0.40761   0.99998   0.81101   1.000
    C205    C    0.40761   0.50001   0.81100   1.000
    C206    C    0.90761   0.99999   0.81101   1.000
    C207    C    0.90762   0.50002   0.81100   1.000
    C208    C    0.16679   0.99999   0.35512   1.000
    C209    C    0.16679   0.49999   0.35511   1.000
    C210    C    0.66680   0.99999   0.35511   1.000
    C211    C    0.66679   0.50000   0.35512   1.000
    C212    C    0.09836   0.99999   0.29030   1.000
    C213    C    0.09836   0.50000   0.29037   1.000
    C214    C    0.59837   1.00000   0.29037   1.000
    C215    C    0.59836   0.50000   0.29037   1.000
    C216    C    0.04020   0.99999   0.33108   1.000
    C217    C    0.04020   0.49999   0.33107   1.000
    C218    C    0.54021   0.99999   0.33108   1.000
    C219    C    0.54020   0.50000   0.33108   1.000
    C220    C    0.47635   0.99999   0.27045   1.000
    C221    C    0.47634   0.50001   0.27045   1.000
    C222    C    0.97634   0.99999   0.27045   1.000
    C223    C    0.97634   0.50000   0.27040   1.000
    C224    C    0.41391   0.99999   0.31399   1.000
    C225    C    0.41390   0.50001   0.31398   1.000
    C226    C    0.91391   0.99999   0.31399   1.000
    C227    C    0.91391   0.49999   0.31399   1.000
    C228    C    0.47060   1.00000   0.16946   1.000
    C229    C    0.47059   0.50000   0.16945   1.000
    C230    C    0.97060   0.99999   0.16946   1.000
    C231    C    0.97060   0.50000   0.16945   1.000
    C232    C    0.02880   0.99999   0.12827   1.000
    C233    C    0.02880   0.50001   0.12827   1.000
    C234    C    0.52880   0.99999   0.12827   1.000
    C235    C    0.52880   0.50000   0.12827   1.000
    C236    C    0.09239   0.99999   0.18897   1.000
    C237    C    0.09239   0.50000   0.18896   1.000
    C238    C    0.59240   0.99999   0.18897   1.000
    C239    C    0.59239   0.50000   0.18897   1.000
    C240    C    0.18966   0.40575   0.59532   1.000
    C241    C    0.18966   0.90576   0.59533   1.000
    C242    C    0.68966   0.40576   0.59533   1.000
    C243    C    0.68967   0.90576   0.59532   1.000
    C244    C    0.31035   0.40575   0.40464   1.000
    C245    C    0.31037   0.90576   0.40464   1.000
    C246    C    0.81036   0.40576   0.40464   1.000
    C247    C    0.81037   0.90576   0.40465   1.000
    C248    C    0.31035   0.09424   0.40465   1.000
    C249    C    0.31034   0.59425   0.40465   1.000
    C250    C    0.81035   0.09425   0.40465   1.000
    C251    C    0.81034   0.59425   0.40460   1.000
    C252    C    0.18965   0.09424   0.59534   1.000
    C253    C    0.18966   0.59425   0.59533   1.000
    C254    C    0.68965   0.09425   0.59533   1.000
    C255    C    0.68965   0.59425   0.59534   1.000
    C256    C    0.47079   0.99998   0.97296   1.000
    C257    C    0.47079   0.50001   0.97296   1.000
    C258    C    0.97079   0.99999   0.97297   1.000
    C259    C    0.97080   0.50001   0.97296   1.000
    C260    C    0.02921   0.99999   0.02700   1.000
    C261    C    0.02922   0.50001   0.02701   1.000
    C262    C    0.52922   0.99999   0.02701   1.000
    C263    C    0.52922   0.50000   0.02701   1.000
    C264    C    0.28228   0.99999   0.68677   1.000
    C265    C    0.28228   0.50000   0.68676   1.000
    C266    C    0.78228   1.00000   0.68677   1.000
    C267    C    0.78229   0.50001   0.68676   1.000
    C268    C    0.33010   0.00000   0.55300   1.000
    C269    C    0.33011   0.50001   0.55379   1.000
    C270    C    0.83010   0.00001   0.55380   1.000
    C271    C    0.83012   0.50001   0.55379   1.000
    C272    C    0.07939   0.00001   0.59296   1.000
    C273    C    0.07941   0.50000   0.59296   1.000
    C274    C    0.57940   0.00000   0.59296   1.000
    C275    C    0.57940   0.50000   0.59296   1.000
    C276    C    0.14354   0.00000   0.74143   1.000
    C277    C    0.14355   0.50000   0.74144   1.000
    C278    C    0.64355   0.00000   0.74140   1.000
    C279    C    0.64355   0.50000   0.74143   1.000
    C280    C    0.21773   1.00000   0.31320   1.000
    C281    C    0.21772   0.50000   0.31320   1.000
    C282    C    0.71773   0.99999   0.31320   1.000
    C283    C    0.71772   0.50000   0.31320   1.000
    C284    C    0.16990   1.00000   0.44618   1.000
    C285    C    0.16990   0.50000   0.44610   1.000
    C286    C    0.66991   0.99999   0.44618   1.000
    C287    C    0.66990   0.50000   0.44618   1.000
    C288    C    0.42061   0.00000   0.40702   1.000
    C289    C    0.42060   0.50000   0.40701   1.000
    C290    C    0.92061   0.00001   0.40701   1.000
    C291    C    0.92061   0.50001   0.40701   1.000
    C292    C    0.35646   1.00000   0.25854   1.000
    C293    C    0.35645   0.49999   0.25853   1.000
    C294    C    0.85646   1.00000   0.25850   1.000
    C295    C    0.85646   0.50000   0.25853   1.000
    O296    O    0.02900   0.99999   0.07763   1.000
    O297    O    0.00000   0.99999   0.99999   1.000
    O298    O    0.52901   0.50000   0.07764   1.000
    O299    O    0.50000   0.50000   0.99999   1.000
    O300    O    0.52901   0.99999   0.07764   1.000
    O301    O    0.50001   0.99999   0.99999   1.000
    O302    O    0.02901   0.50001   0.07764   1.000
    O303    O    0.00001   0.50001   0.99999   1.000
    O304    O    0.44579   0.99999   0.14618   1.000
    O305    O    0.94579   0.50001   0.14618   1.000
    O306    O    0.44578   0.50000   0.14620   1.000
    O307    O    0.94579   0.99999   0.14621   1.000
    O308    O    0.99970   0.99999   0.14887   1.000
    O309    O    0.06059   0.99999   0.15862   1.000
    O310    O    0.99970   0.50001   0.14886   1.000
    O311    O    0.06059   0.50001   0.15862   1.000
    O312    O    0.49970   0.99999   0.14887   1.000
    O313    O    0.56060   0.99999   0.15862   1.000
    O314    O    0.49969   0.50000   0.14886   1.000
    O315    O    0.56059   0.50000   0.15862   1.000
    O316    O    0.61485   0.50000   0.17278   1.000
    O317    O    0.61486   0.99999   0.17282   1.000
    O318    O    0.11485   0.50000   0.17282   1.000
    O319    O    0.11485   0.99999   0.17283   1.000
    O320    O    0.97347   0.50000   0.21993   1.000
    O321    O    0.47346   0.50000   0.21995   1.000
    O322    O    0.47347   1.00000   0.21996   1.000
    O323    O    0.97347   0.99999   0.21996   1.000
    O324    O    0.09538   0.50000   0.23967   1.000
    O325    O    0.59539   0.99999   0.23967   1.000
    O326    O    0.09538   0.99999   0.23964   1.000
    O327    O    0.59538   0.50000   0.23967   1.000
    O328    O    0.88518   0.99999   0.28625   1.000
    O329    O    0.83505   1.00000   0.32895   1.000
    O330    O    0.88518   0.50000   0.28626   1.000
    O331    O    0.83505   0.50000   0.32895   1.000
    O332    O    0.38517   0.50000   0.28625   1.000
    O333    O    0.33504   0.50000   0.32896   1.000
    O334    O    0.38519   1.00000   0.28626   1.000
    O335    O    0.33505   1.00000   0.32897   1.000
    O336    O    0.75893   0.80429   0.29493   1.000
    O337    O    0.25883   0.80429   0.29500   1.000
    O338    O    0.25874   0.19571   0.29503   1.000
    O339    O    0.25879   0.30429   0.29503   1.000
    O340    O    0.75878   0.19571   0.29505   1.000
    O341    O    0.75877   0.30429   0.29505   1.000
    O342    O    0.25871   0.69571   0.29509   1.000
    O343    O    0.75861   0.69571   0.29517   1.000
    O344    O    0.76148   0.88870   0.29957   1.000
    O345    O    0.26136   0.38870   0.29961   1.000
    O346    O    0.26140   0.88870   0.29962   1.000
    O347    O    0.76135   0.38870   0.29966   1.000
    O348    O    0.76135   0.11130   0.29967   1.000
    O349    O    0.26132   0.11130   0.29968   1.000
    O350    O    0.26129   0.61130   0.29968   1.000
    O351    O    0.76121   0.61130   0.29976   1.000
    O352    O    0.94513   0.49999   0.29219   1.000
    O353    O    0.00827   0.49999   0.30073   1.000
    O354    O    0.94513   0.99999   0.29222   1.000
    O355    O    0.00827   0.99999   0.30077   1.000
    O356    O    0.44513   0.99999   0.29222   1.000
    O357    O    0.50828   0.99999   0.30077   1.000
    O358    O    0.44512   0.50001   0.29222   1.000
    O359    O    0.50827   0.50001   0.30077   1.000
    O360    O    0.06928   0.99999   0.31069   1.000
    O361    O    0.13258   0.99999   0.32271   1.000
    O362    O    0.56928   0.50000   0.31073   1.000
    O363    O    0.63257   0.50000   0.32275   1.000
    O364    O    0.56929   1.00000   0.31073   1.000
    O365    O    0.63258   1.00000   0.32274   1.000
    O366    O    0.06928   0.49999   0.31072   1.000
    O367    O    0.13258   0.50000   0.32274   1.000
    O368    O    0.69225   0.50000   0.33416   1.000
    O369    O    0.76568   0.50000   0.35629   1.000
    O370    O    0.69227   0.99999   0.33416   1.000
    O371    O    0.76569   1.00000   0.35630   1.000
    O372    O    0.19226   0.50000   0.33416   1.000
    O373    O    0.26568   0.50000   0.35630   1.000
    O374    O    0.19226   0.99999   0.33416   1.000
    O375    O    0.26568   1.00000   0.35630   1.000
    O376    O    0.41725   0.50001   0.36050   1.000
    O377    O    0.91726   1.00000   0.36050   1.000
    O378    O    0.91726   0.50000   0.36050   1.000
    O379    O    0.41726   1.00000   0.36051   1.000
    O380    O    0.77446   0.84521   0.32801   1.000
    O381    O    0.79176   0.79865   0.36577   1.000
    O382    O    0.27440   0.84521   0.32805   1.000
    O383    O    0.29172   0.79865   0.36580   1.000
    O384    O    0.27437   0.34521   0.32807   1.000
    O385    O    0.29170   0.29865   0.36581   1.000
    O386    O    0.77436   0.34521   0.32808   1.000
    O387    O    0.79170   0.29865   0.36581   1.000
    O388    O    0.77436   0.15479   0.32809   1.000
    O389    O    0.79170   0.20135   0.36581   1.000
    O390    O    0.27434   0.15479   0.32810   1.000
    O391    O    0.29169   0.20135   0.36582   1.000
    O392    O    0.27432   0.65479   0.32808   1.000
    O393    O    0.29168   0.70135   0.36582   1.000
    O394    O    0.77426   0.65479   0.32816   1.000
    O395    O    0.79164   0.70135   0.36585   1.000
    O396    O    0.79280   0.89065   0.36696   1.000
    O397    O    0.29277   0.89065   0.36697   1.000
    O398    O    0.29272   0.60935   0.36697   1.000
    O399    O    0.29275   0.39065   0.36697   1.000
    O400    O    0.79275   0.39065   0.36698   1.000
    O401    O    0.79275   0.10935   0.36699   1.000
    O402    O    0.29273   0.10935   0.36700   1.000
    O403    O    0.79269   0.60935   0.36700   1.000
    O404    O    0.04211   0.49999   0.37049   1.000
    O405    O    0.54211   0.50001   0.37050   1.000
    O406    O    0.54212   0.99999   0.37050   1.000
    O407    O    0.04211   0.99999   0.37050   1.000
    O408    O    0.16834   0.50000   0.40061   1.000
    O409    O    0.66835   0.99999   0.40065   1.000
    O410    O    0.66834   0.50000   0.40065   1.000
    O411    O    0.16835   1.00000   0.40065   1.000
    O412    O    0.81199   0.54712   0.40199   1.000
    O413    O    0.81200   0.45288   0.40201   1.000
    O414    O    0.86712   0.50001   0.40320   1.000
    O415    O    0.82188   0.50001   0.47659   1.000
    O416    O    0.31199   0.45288   0.40202   1.000
    O417    O    0.31199   0.54712   0.40202   1.000
    O418    O    0.36712   0.50000   0.40320   1.000
    O419    O    0.32187   0.50000   0.47659   1.000
    O420    O    0.31200   0.95288   0.40202   1.000
    O421    O    0.31199   0.04712   0.40202   1.000
    O422    O    0.36712   0.00000   0.40321   1.000
    O423    O    0.32187   0.00000   0.47620   1.000
    O424    O    0.81200   0.04712   0.40203   1.000
    O425    O    0.81200   0.95288   0.40203   1.000
    O426    O    0.86712   0.00000   0.40321   1.000
    O427    O    0.82187   0.00000   0.47660   1.000
    O428    O    0.82814   0.60941   0.44201   1.000
    O429    O    0.32810   0.39059   0.44208   1.000
    O430    O    0.32809   0.89059   0.44209   1.000
    O431    O    0.82811   0.39059   0.44207   1.000
    O432    O    0.32811   0.60942   0.44206   1.000
    O433    O    0.82810   0.10941   0.44208   1.000
    O434    O    0.82807   0.89059   0.44212   1.000
    O435    O    0.32810   0.10941   0.44207   1.000
    O436    O    0.30982   0.75000   0.40478   1.000
    O437    O    0.32823   0.70140   0.44357   1.000
    O438    O    0.80982   0.75000   0.40478   1.000
    O439    O    0.82827   0.70140   0.44354   1.000
    O440    O    0.80982   0.25000   0.40478   1.000
    O441    O    0.82822   0.29861   0.44359   1.000
    O442    O    0.30981   0.25000   0.40478   1.000
    O443    O    0.32822   0.20140   0.44358   1.000
    O444    O    0.82821   0.20140   0.44360   1.000
    O445    O    0.82817   0.79860   0.44364   1.000
    O446    O    0.32820   0.29860   0.44360   1.000
    O447    O    0.32820   0.79861   0.44361   1.000
    O448    O    0.17814   0.50000   0.52334   1.000
    O449    O    0.67814   0.50000   0.52338   1.000
    O450    O    0.67814   1.00000   0.52338   1.000
    O451    O    0.17813   1.00000   0.52338   1.000
    O452    O    0.63853   0.19584   0.48578   1.000
    O453    O    0.63844   0.30416   0.48580   1.000
    O454    O    0.13846   0.69584   0.48590   1.000
    O455    O    0.63853   0.80416   0.48588   1.000
    O456    O    0.13851   0.80416   0.48588   1.000
    O457    O    0.13850   0.30415   0.48590   1.000
    O458    O    0.13846   0.19584   0.48594   1.000
    O459    O    0.63845   0.69584   0.48594   1.000
    O460    O    0.63997   0.88847   0.49102   1.000
    O461    O    0.63996   0.11153   0.49102   1.000
    O462    O    0.13995   0.88847   0.49104   1.000
    O463    O    0.13994   0.38846   0.49104   1.000
    O464    O    0.13991   0.61153   0.49108   1.000
    O465    O    0.13990   0.11153   0.49109   1.000
    O466    O    0.63989   0.38847   0.49109   1.000
    O467    O    0.63989   0.61153   0.49109   1.000
    O468    O    0.84634   0.65490   0.48086   1.000
    O469    O    0.86022   0.61153   0.50880   1.000
    O470    O    0.34627   0.65490   0.48092   1.000
    O471    O    0.36013   0.61154   0.50888   1.000
    O472    O    0.34624   0.15490   0.48094   1.000
    O473    O    0.36010   0.11153   0.50891   1.000
    O474    O    0.84624   0.34511   0.48094   1.000
    O475    O    0.86009   0.38847   0.50891   1.000
    O476    O    0.84622   0.15490   0.48096   1.000
    O477    O    0.86007   0.11154   0.50893   1.000
    O478    O    0.34622   0.34510   0.48096   1.000
    O479    O    0.36007   0.38847   0.50893   1.000
    O480    O    0.34620   0.84511   0.48098   1.000
    O481    O    0.36004   0.88847   0.50896   1.000
    O482    O    0.84614   0.84510   0.48103   1.000
    O483    O    0.85997   0.88847   0.50903   1.000
    O484    O    0.86169   0.69584   0.51390   1.000
    O485    O    0.36158   0.69585   0.51401   1.000
    O486    O    0.36154   0.19584   0.51405   1.000
    O487    O    0.86153   0.30416   0.51406   1.000
    O488    O    0.36150   0.30416   0.51406   1.000
    O489    O    0.86151   0.19585   0.51408   1.000
    O490    O    0.36147   0.80416   0.51372   1.000
    O491    O    0.86137   0.80416   0.51420   1.000
    O492    O    0.65380   0.15490   0.51900   1.000
    O493    O    0.67181   0.20140   0.55638   1.000
    O494    O    0.65381   0.84510   0.51900   1.000
    O495    O    0.67181   0.79860   0.55638   1.000
    O496    O    0.15380   0.84510   0.51901   1.000
    O497    O    0.17181   0.79861   0.55638   1.000
    O498    O    0.15379   0.34510   0.51902   1.000
    O499    O    0.17180   0.29860   0.55638   1.000
    O500    O    0.15376   0.65490   0.51904   1.000
    O501    O    0.17179   0.70140   0.55630   1.000
    O502    O    0.15376   0.15490   0.51905   1.000
    O503    O    0.17178   0.20140   0.55640   1.000
    O504    O    0.65375   0.65490   0.51905   1.000
    O505    O    0.67179   0.70140   0.55630   1.000
    O506    O    0.65375   0.34510   0.51906   1.000
    O507    O    0.67178   0.29860   0.55640   1.000
    O508    O    0.67192   0.10941   0.55789   1.000
    O509    O    0.67193   0.89059   0.55788   1.000
    O510    O    0.17192   0.39059   0.55789   1.000
    O511    O    0.17192   0.89059   0.55790   1.000
    O512    O    0.17190   0.60941   0.55791   1.000
    O513    O    0.67189   0.60941   0.55792   1.000
    O514    O    0.17189   0.10941   0.55792   1.000
    O515    O    0.67190   0.39059   0.55792   1.000
    O516    O    0.33166   0.00000   0.59893   1.000
    O517    O    0.83167   0.50001   0.59932   1.000
    O518    O    0.33166   0.50001   0.59930   1.000
    O519    O    0.83166   0.00000   0.59933   1.000
    O520    O    0.45789   0.99999   0.62945   1.000
    O521    O    0.95790   0.50000   0.62948   1.000
    O522    O    0.45789   0.50001   0.62903   1.000
    O523    O    0.95789   0.99999   0.62949   1.000
    O524    O    0.13289   0.50000   0.59677   1.000
    O525    O    0.08276   0.50000   0.63947   1.000
    O526    O    0.13288   0.00000   0.59677   1.000
    O527    O    0.08274   0.99999   0.63947   1.000
    O528    O    0.63289   0.00000   0.59677   1.000
    O529    O    0.58275   0.99999   0.63947   1.000
    O530    O    0.63289   0.50000   0.59677   1.000
    O531    O    0.58275   0.50000   0.63947   1.000
    O532    O    0.69020   0.75000   0.59510   1.000
    O533    O    0.70832   0.70135   0.63406   1.000
    O534    O    0.19019   0.75000   0.59510   1.000
    O535    O    0.20832   0.70135   0.63407   1.000
    O536    O    0.69020   0.25000   0.59519   1.000
    O537    O    0.70833   0.29865   0.63415   1.000
    O538    O    0.70831   0.79865   0.63417   1.000
    O539    O    0.20830   0.79866   0.63417   1.000
    O540    O    0.19019   0.25000   0.59520   1.000
    O541    O    0.20831   0.29865   0.63417   1.000
    O542    O    0.70829   0.20135   0.63418   1.000
    O543    O    0.20831   0.20135   0.63417   1.000
    O544    O    0.68802   0.95288   0.59795   1.000
    O545    O    0.70727   0.89065   0.63299   1.000
    O546    O    0.18802   0.45288   0.59795   1.000
    O547    O    0.20726   0.39065   0.63299   1.000
    O548    O    0.18801   0.95288   0.59796   1.000
    O549    O    0.20726   0.89065   0.63300   1.000
    O550    O    0.18801   0.54712   0.59796   1.000
    O551    O    0.20727   0.60936   0.63299   1.000
    O552    O    0.68802   0.45288   0.59796   1.000
    O553    O    0.70729   0.39065   0.63298   1.000
    O554    O    0.68801   0.04712   0.59796   1.000
    O555    O    0.70725   0.10935   0.63300   1.000
    O556    O    0.68801   0.54712   0.59796   1.000
    O557    O    0.70727   0.60936   0.63299   1.000
    O558    O    0.18801   0.04712   0.59796   1.000
    O559    O    0.20726   0.10935   0.63300   1.000
    O560    O    0.73433   0.50000   0.64367   1.000
    O561    O    0.66496   0.50000   0.67101   1.000
    O562    O    0.23433   0.50000   0.64367   1.000
    O563    O    0.16496   0.50000   0.67101   1.000
    O564    O    0.73432   0.00000   0.64368   1.000
    O565    O    0.66496   0.00000   0.67099   1.000
    O566    O    0.23432   1.00000   0.64368   1.000
    O567    O    0.16495   0.00000   0.67101   1.000
    O568    O    0.30775   0.50000   0.66578   1.000
    O569    O    0.36743   0.50001   0.67720   1.000
    O570    O    0.80776   0.50000   0.66580   1.000
    O571    O    0.86744   0.50001   0.67723   1.000
    O572    O    0.80775   1.00000   0.66582   1.000
    O573    O    0.86743   1.00000   0.67724   1.000
    O574    O    0.30775   1.00000   0.66582   1.000
    O575    O    0.36743   0.99999   0.67723   1.000
    O576    O    0.43072   0.50001   0.68880   1.000
    O577    O    0.49174   0.50001   0.69876   1.000
    O578    O    0.93073   0.50000   0.68925   1.000
    O579    O    0.99174   0.50000   0.69921   1.000
    O580    O    0.43072   0.99999   0.68925   1.000
    O581    O    0.49174   0.99999   0.69921   1.000
    O582    O    0.93072   0.99999   0.68926   1.000
    O583    O    0.99173   0.99999   0.69920   1.000
    O584    O    0.72569   0.34521   0.67187   1.000
    O585    O    0.73871   0.38870   0.70029   1.000
    O586    O    0.22566   0.65479   0.67188   1.000
    O587    O    0.23868   0.61131   0.70027   1.000
    O588    O    0.72567   0.65479   0.67188   1.000
    O589    O    0.73869   0.61131   0.70030   1.000
    O590    O    0.22564   0.34521   0.67190   1.000
    O591    O    0.23865   0.38870   0.70032   1.000
    O592    O    0.22566   0.15479   0.67189   1.000
    O593    O    0.23867   0.11130   0.70031   1.000
    O594    O    0.72564   0.84521   0.67191   1.000
    O595    O    0.73864   0.88870   0.70033   1.000
    O596    O    0.22564   0.84522   0.67191   1.000
    O597    O    0.23864   0.88870   0.70033   1.000
    O598    O    0.72562   0.15479   0.67192   1.000
    O599    O    0.73862   0.11130   0.70035   1.000
    O600    O    0.74129   0.30429   0.70489   1.000
    O601    O    0.74127   0.69571   0.70490   1.000
    O602    O    0.24126   0.69572   0.70492   1.000
    O603    O    0.24126   0.19571   0.70457   1.000
    O604    O    0.24122   0.30429   0.70494   1.000
    O605    O    0.24122   0.80430   0.70493   1.000
    O606    O    0.74121   0.80430   0.70495   1.000
    O607    O    0.74119   0.19571   0.70493   1.000
    O608    O    0.05489   0.50000   0.70775   1.000
    O609    O    0.11483   0.50000   0.71371   1.000
    O610    O    0.55489   0.99999   0.70775   1.000
    O611    O    0.61483   0.99999   0.71369   1.000
    O612    O    0.55489   0.50001   0.70775   1.000
    O613    O    0.61483   0.50000   0.71371   1.000
    O614    O    0.05488   0.99999   0.70774   1.000
    O615    O    0.11482   0.99999   0.71371   1.000
    O616    O    0.90463   0.50001   0.76030   1.000
    O617    O    0.40463   0.50001   0.76030   1.000
    O618    O    0.40463   0.99999   0.76031   1.000
    O619    O    0.90463   0.99999   0.76031   1.000
    O620    O    0.02653   0.99999   0.78001   1.000
    O621    O    0.52654   0.99999   0.78002   1.000
    O622    O    0.02654   0.50001   0.78001   1.000
    O623    O    0.52654   0.50001   0.78002   1.000
    O624    O    0.88516   0.50002   0.82715   1.000
    O625    O    0.93942   0.50002   0.84135   1.000
    O626    O    0.38516   0.50001   0.82715   1.000
    O627    O    0.43941   0.50001   0.84135   1.000
    O628    O    0.38516   0.99998   0.82716   1.000
    O629    O    0.43941   0.99998   0.84136   1.000
    O630    O    0.88515   0.99999   0.82716   1.000
    O631    O    0.93941   0.99999   0.84136   1.000
    O632    O    0.00031   0.50001   0.85110   1.000
    O633    O    0.05422   0.50001   0.85377   1.000
    O634    O    0.50031   0.50001   0.85111   1.000
    O635    O    0.55422   0.50001   0.85378   1.000
    O636    O    0.00031   0.99999   0.85112   1.000
    O637    O    0.05421   0.99999   0.85378   1.000
    O638    O    0.50031   0.99998   0.85111   1.000
    O639    O    0.55422   0.99998   0.85378   1.000
    O640    O    0.47100   0.99998   0.92233   1.000
    O641    O    0.47100   0.50001   0.92233   1.000
    O642    O    0.97101   0.50002   0.92233   1.000
    O643    O    0.97100   0.99999   0.92234   1.000
loop_
    _geom_bond_atom_site_label_1
    _geom_bond_atom_site_label_2
    _geom_bond_distance
    _geom_bond_site_symmetry_2
    _ccdc_geom_bond_type
    C260   O296      0.70920      .   S
    C232   O296      0.70920      .   S
    C260   O297      0.63849  1_554   S
    C258   O297      0.63849  1_655   S
    C263   O298      0.70913      .   S
    C235   O298      0.70913      .   S
    C263   O299      0.63859  1_554   S
    C257   O299      0.63859      .   S
    C262   O300      0.70913      .   S
    C234   O300      0.70913      .   S
    C262   O301      0.63860  1_554   S
    C256   O301      0.63860      .   S
    C261   O302      0.70913      .   S
    C233   O302      0.70913      .   S
    C261   O303      0.63854  1_554   S
    C259   O303      0.63854  1_655   S
    C88    O304      0.54426      .   S
    C228   O304      0.54426      .   S
    C91    O305      0.54422      .   S
    C231   O305      0.54422      .   S
    C89    O306      0.54410      .   S
    C229   O306      0.54410      .   S
    C90    O307      0.54410      .   S
    C230   O307      0.54410      .   S
    C232   O308      0.70311  1_455   S
    C230   O308      0.70311      .   S
    C232   O309      0.70065      .   S
    C236   O309      0.70065      .   S
    C233   O310      0.70308  1_455   S
    C231   O310      0.70308      .   S
    C233   O311      0.70062      .   S
    C237   O311      0.70062      .   S
    C234   O312      0.70317      .   S
    C228   O312      0.70317      .   S
    C234   O313      0.70066      .   S
    C238   O313      0.70066      .   S
    C235   O314      0.70315      .   S
    C229   O314      0.70315      .   S
    C235   O315      0.70064      .   S
    C239   O315      0.70064      .   S
    C95    O316      0.54500      .   S
    C239   O316      0.54500      .   S
    C94    O317      0.54470      .   S
    C238   O317      0.54470      .   S
    C93    O318      0.54467      .   S
    C237   O318      0.54467      .   S
    C92    O319      0.54467      .   S
    C236   O319      0.54467      .   S
    C231   O320      0.69745      .   S
    C223   O320      0.69745      .   S
    C229   O321      0.69780      .   S
    C221   O321      0.69780      .   S
    C228   O322      0.69773      .   S
    C220   O322      0.69773      .   S
    C230   O323      0.69773      .   S
    C222   O323      0.69773      .   S
    C237   O324      0.70041      .   S
    C213   O324      0.70041      .   S
    C238   O325      0.70034      .   S
    C214   O325      0.70034      .   S
    C236   O326      0.69985      .   S
    C212   O326      0.69985      .   S
    C239   O327      0.70035      .   S
    C215   O327      0.70035      .   S
    C294   O328      0.63490      .   S
    C226   O328      0.63490      .   S
    C294   O329      1.14949      .   S
    C6     O329      1.14949      .   S
    C295   O330      0.63482      .   S
    C227   O330      0.63482      .   S
    C295   O331      1.14918      .   S
    C7     O331      1.14918      .   S
    C293   O332      0.63477      .   S
    C225   O332      0.63477      .   S
    C293   O333      1.14922      .   S
    C5     O333      1.14922      .   S
    C292   O334      0.63478      .   S
    C224   O334      0.63478      .   S
    C292   O335      1.14920      .   S
    C4     O335      1.14920      .   S
    C31    O336      0.54393      .   S
    C123   O336      0.54393      .   S
    C29    O337      0.54399      .   S
    C121   O337      0.54399      .   S
    C44    O338      0.54438      .   S
    C140   O338      0.54438      .   S
    C28    O339      0.54400      .   S
    C120   O339      0.54400      .   S
    C46    O340      0.54398      .   S
    C142   O340      0.54398      .   S
    C30    O341      0.54399      .   S
    C122   O341      0.54399      .   S
    C45    O342      0.54399      .   S
    C141   O342      0.54399      .   S
    C47    O343      0.54396      .   S
    C143   O343      0.54396      .   S
    C27    O344      0.54494      .   S
    C119   O344      0.54494      .   S
    C24    O345      0.54529      .   S
    C116   O345      0.54529      .   S
    C25    O346      0.54490      .   S
    C117   O346      0.54490      .   S
    C26    O347      0.54494      .   S
    C118   O347      0.54494      .   S
    C42    O348      0.54494      .   S
    C138   O348      0.54494      .   S
    C40    O349      0.54494      .   S
    C136   O349      0.54494      .   S
    C41    O350      0.54468      .   S
    C137   O350      0.54468      .   S
    C43    O351      0.54494      .   S
    C139   O351      0.54494      .   S
    C223   O352      0.75196      .   S
    C227   O352      0.75196      .   S
    C223   O353      0.70269  1_655   S
    C217   O353      0.70269      .   S
    C222   O354      0.75179      .   S
    C226   O354      0.75179      .   S
    C222   O355      0.70257  1_655   S
    C216   O355      0.70257      .   S
    C220   O356      0.75177      .   S
    C224   O356      0.75177      .   S
    C220   O357      0.70263      .   S
    C218   O357      0.70263      .   S
    C221   O358      0.75175      .   S
    C225   O358      0.75175      .   S
    C221   O359      0.70262      .   S
    C219   O359      0.70262      .   S
    C212   O360      0.70117      .   S
    C216   O360      0.70117      .   S
    C212   O361      0.75236      .   S
    C208   O361      0.75236      .   S
    C215   O362      0.70089      .   S
    C219   O362      0.70089      .   S
    C215   O363      0.75215      .   S
    C211   O363      0.75215      .   S
    C214   O364      0.70088      .   S
    C218   O364      0.70088      .   S
    C214   O365      0.75212      .   S
    C210   O365      0.75212      .   S
    C213   O366      0.70084      .   S
    C217   O366      0.70084      .   S
    C213   O367      0.75212      .   S
    C209   O367      0.75212      .   S
    C283   O368      0.63964      .   S
    C211   O368      0.63964      .   S
    C283   O369      1.04106      .   S
    C7     O369      1.04106      .   S
    C282   O370      0.63962      .   S
    C210   O370      0.63962      .   S
    C282   O371      1.04103      .   S
    C6     O371      1.04103      .   S
    C281   O372      0.63961      .   S
    C209   O372      0.63961      .   S
    C281   O373      1.04103      .   S
    C5     O373      1.04103      .   S
    C280   O374      0.63965      .   S
    C208   O374      0.63965      .   S
    C280   O375      1.04105      .   S
    C4     O375      1.04105      .   S
    C225   O376      0.64134      .   S
    C289   O376      0.64134      .   S
    C226   O377      0.64127      .   S
    C290   O377      0.64127  1_545   S
    C227   O378      0.64127      .   S
    C291   O378      0.64127      .   S
    C224   O379      0.64134      .   S
    C288   O379      0.64134  1_545   S
    C123   O380      0.69476      .   S
    C119   O380      0.69476      .   S
    C123   O381      0.70281      .   S
    C127   O381      0.70281      .   S
    C121   O382      0.69476      .   S
    C117   O382      0.69476      .   S
    C121   O383      0.70280      .   S
    C125   O383      0.70280      .   S
    C120   O384      0.69476      .   S
    C116   O384      0.69476      .   S
    C120   O385      0.70280      .   S
    C124   O385      0.70280      .   S
    C122   O386      0.69476      .   S
    C118   O386      0.69476      .   S
    C122   O387      0.70279      .   S
    C126   O387      0.70279      .   S
    C142   O388      0.69475      .   S
    C138   O388      0.69475      .   S
    C142   O389      0.70280      .   S
    C146   O389      0.70280      .   S
    C140   O390      0.69476      .   S
    C136   O390      0.69476      .   S
    C140   O391      0.70281      .   S
    C144   O391      0.70281      .   S
    C141   O392      0.69475      .   S
    C137   O392      0.69475      .   S
    C141   O393      0.70280      .   S
    C145   O393      0.70280      .   S
    C143   O394      0.69476      .   S
    C139   O394      0.69476      .   S
    C143   O395      0.70281      .   S
    C147   O395      0.70281      .   S
    C119   O396      0.67305      .   S
    C247   O396      0.67305      .   S
    C117   O397      0.67309      .   S
    C245   O397      0.67309      .   S
    C137   O398      0.67333      .   S
    C249   O398      0.67333      .   S
    C116   O399      0.67307      .   S
    C244   O399      0.67307      .   S
    C118   O400      0.67307      .   S
    C246   O400      0.67307      .   S
    C138   O401      0.67305      .   S
    C250   O401      0.67305      .   S
    C136   O402      0.67306      .   S
    C248   O402      0.67306      .   S
    C139   O403      0.67291      .   S
    C251   O403      0.67291      .   S
    C217   O404      0.54540      .   S
    C85    O404      0.54540      .   S
    C219   O405      0.54540      .   S
    C87    O405      0.54540      .   S
    C218   O406      0.54540      .   S
    C86    O406      0.54540      .   S
    C216   O407      0.54540      .   S
    C84    O407      0.54540      .   S
    C209   O408      0.63125      .   S
    C285   O408      0.63125      .   S
    C210   O409      0.63181      .   S
    C286   O409      0.63181      .   S
    C211   O410      0.63174      .   S
    C287   O410      0.63174      .   S
    C208   O411      0.63174      .   S
    C284   O411      0.63174      .   S
    C7     O412      1.08026      .   S
    C251   O412      1.08026      .   S
    C7     O413      1.08027      .   S
    C246   O413      1.08027      .   S
    C7     O414      1.07387      .   S
    C291   O414      1.07387      .   S
    C7     O415      1.06116      .   S
    C271   O415      1.06116      .   S
    C5     O416      1.08028      .   S
    C244   O416      1.08028      .   S
    C5     O417      1.08028      .   S
    C249   O417      1.08028      .   S
    C5     O418      1.07379      .   S
    C289   O418      1.07379      .   S
    C5     O419      1.06109      .   S
    C269   O419      1.06109      .   S
    C4     O420      1.08022      .   S
    C245   O420      1.08022      .   S
    C4     O421      1.08027  1_565   S
    C248   O421      1.08027      .   S
    C4     O422      1.07390  1_565   S
    C288   O422      1.07390      .   S
    C4     O423      1.05564  1_565   S
    C268   O423      1.05564      .   S
    C6     O424      1.08029  1_565   S
    C250   O424      1.08029      .   S
    C6     O425      1.08023      .   S
    C247   O425      1.08023      .   S
    C6     O426      1.07383  1_565   S
    C290   O426      1.07383      .   S
    C6     O427      1.06110  1_565   S
    C270   O427      1.06110      .   S
    C251   O428      0.67283      .   S
    C155   O428      0.67283      .   S
    C244   O429      0.67267      .   S
    C132   O429      0.67267      .   S
    C245   O430      0.67267      .   S
    C133   O430      0.67267      .   S
    C246   O431      0.67264      .   S
    C134   O431      0.67264      .   S
    C249   O432      0.67266      .   S
    C153   O432      0.67266      .   S
    C250   O433      0.67266      .   S
    C154   O433      0.67266      .   S
    C247   O434      0.67265      .   S
    C135   O434      0.67265      .   S
    C248   O435      0.67265      .   S
    C152   O435      0.67265      .   S
    C145   O436      0.74233      .   S
    C125   O436      0.74233      .   S
    C145   O437      0.70286      .   S
    C149   O437      0.70286      .   S
    C147   O438      0.74233      .   S
    C127   O438      0.74233      .   S
    C147   O439      0.70286      .   S
    C151   O439      0.70286      .   S
    C126   O440      0.74232      .   S
    C146   O440      0.74232      .   S
    C126   O441      0.70285      .   S
    C130   O441      0.70285      .   S
    C144   O442      0.74232      .   S
    C124   O442      0.74232      .   S
    C144   O443      0.70284      .   S
    C148   O443      0.70284      .   S
    C146   O444      0.70288      .   S
    C150   O444      0.70288      .   S
    C127   O445      0.70286      .   S
    C131   O445      0.70286      .   S
    C124   O446      0.70286      .   S
    C128   O446      0.70286      .   S
    C125   O447      0.70284      .   S
    C129   O447      0.70284      .   S
    C285   O448      1.06165      .   S
    C1     O448      1.06165      .   S
    C287   O449      1.06109      .   S
    C3     O449      1.06109      .   S
    C286   O450      1.06110      .   S
    C2     O450      1.06110  1_545   S
    C284   O451      1.06110      .   S
    C0     O451      1.06110  1_545   S
    C66    O452      0.54489      .   S
    C170   O452      0.54489      .   S
    C18    O453      0.54539      .   S
    C110   O453      0.54539      .   S
    C65    O454      0.54420      .   S
    C169   O454      0.54420      .   S
    C19    O455      0.54393      .   S
    C111   O455      0.54393      .   S
    C17    O456      0.54396      .   S
    C109   O456      0.54396      .   S
    C16    O457      0.54393      .   S
    C108   O457      0.54393      .   S
    C64    O458      0.54392      .   S
    C168   O458      0.54392      .   S
    C67    O459      0.54389      .   S
    C171   O459      0.54389      .   S
    C23    O460      0.54464      .   S
    C115   O460      0.54464      .   S
    C70    O461      0.54463      .   S
    C174   O461      0.54463      .   S
    C21    O462      0.54465      .   S
    C113   O462      0.54465      .   S
    C20    O463      0.54463      .   S
    C112   O463      0.54463      .   S
    C69    O464      0.54466      .   S
    C173   O464      0.54466      .   S
    C68    O465      0.54467      .   S
    C172   O465      0.54467      .   S
    C22    O466      0.54466      .   S
    C114   O466      0.54466      .   S
    C71    O467      0.54464      .   S
    C175   O467      0.54464      .   S
    C155   O468      0.69447      .   S
    C151   O468      0.69447      .   S
    C155   O469      0.54466      .   S
    C55    O469      0.54466      .   S
    C153   O470      0.69445      .   S
    C149   O470      0.69445      .   S
    C153   O471      0.54465      .   S
    C53    O471      0.54465      .   S
    C152   O472      0.69447      .   S
    C148   O472      0.69447      .   S
    C152   O473      0.54466      .   S
    C52    O473      0.54466      .   S
    C134   O474      0.69446      .   S
    C130   O474      0.69446      .   S
    C134   O475      0.54463      .   S
    C38    O475      0.54463      .   S
    C154   O476      0.69446      .   S
    C150   O476      0.69446      .   S
    C154   O477      0.54464      .   S
    C54    O477      0.54464      .   S
    C132   O478      0.69445      .   S
    C128   O478      0.69445      .   S
    C132   O479      0.54463      .   S
    C36    O479      0.54463      .   S
    C133   O480      0.69445      .   S
    C129   O480      0.69445      .   S
    C133   O481      0.54465      .   S
    C37    O481      0.54465      .   S
    C135   O482      0.69445      .   S
    C131   O482      0.69445      .   S
    C135   O483      0.54465      .   S
    C39    O483      0.54465      .   S
    C151   O484      0.54361      .   S
    C51    O484      0.54361      .   S
    C149   O485      0.54390      .   S
    C49    O485      0.54390      .   S
    C148   O486      0.54391      .   S
    C48    O486      0.54391      .   S
    C130   O487      0.54391      .   S
    C34    O487      0.54391      .   S
    C128   O488      0.54362      .   S
    C32    O488      0.54362      .   S
    C150   O489      0.54386      .   S
    C50    O489      0.54386      .   S
    C129   O490      0.53997      .   S
    C33    O490      0.53997      .   S
    C131   O491      0.54388      .   S
    C35    O491      0.54388      .   S
    C170   O492      0.69444      .   S
    C174   O492      0.69444      .   S
    C170   O493      0.70280      .   S
    C166   O493      0.70280      .   S
    C111   O494      0.69445      .   S
    C115   O494      0.69445      .   S
    C111   O495      0.70282      .   S
    C107   O495      0.70282      .   S
    C109   O496      0.69446      .   S
    C113   O496      0.69446      .   S
    C109   O497      0.70283      .   S
    C105   O497      0.70283      .   S
    C108   O498      0.69445      .   S
    C112   O498      0.69445      .   S
    C108   O499      0.70282      .   S
    C104   O499      0.70282      .   S
    C169   O500      0.69446      .   S
    C173   O500      0.69446      .   S
    C169   O501      0.70194      .   S
    C165   O501      0.70194      .   S
    C168   O502      0.69445      .   S
    C172   O502      0.69445      .   S
    C168   O503      0.70284      .   S
    C164   O503      0.70284      .   S
    C171   O504      0.69445      .   S
    C175   O504      0.69445      .   S
    C171   O505      0.70194      .   S
    C167   O505      0.70194      .   S
    C110   O506      0.69445      .   S
    C114   O506      0.69445      .   S
    C110   O507      0.70280      .   S
    C106   O507      0.70280      .   S
    C174   O508      0.67268      .   S
    C254   O508      0.67268      .   S
    C115   O509      0.67266      .   S
    C243   O509      0.67266      .   S
    C112   O510      0.67266      .   S
    C240   O510      0.67266      .   S
    C113   O511      0.67266      .   S
    C241   O511      0.67266      .   S
    C173   O512      0.67264      .   S
    C253   O512      0.67264      .   S
    C175   O513      0.67267      .   S
    C255   O513      0.67267      .   S
    C172   O514      0.67263      .   S
    C252   O514      0.67263      .   S
    C114   O515      0.67265      .   S
    C242   O515      0.67265      .   S
    C268   O516      0.63733      .   S
    C176   O516      0.63733  1_565   S
    C271   O517      0.63175      .   S
    C179   O517      0.63175      .   S
    C269   O518      0.63140      .   S
    C177   O518      0.63140      .   S
    C270   O519      0.63175      .   S
    C178   O519      0.63175  1_565   S
    C72    O520      0.54589      .   S
    C184   O520      0.54589      .   S
    C75    O521      0.54540      .   S
    C187   O521      0.54540      .   S
    C73    O522      0.53919      .   S
    C185   O522      0.53919      .   S
    C74    O523      0.54540      .   S
    C186   O523      0.54540      .   S
    C273   O524      1.07382      .   S
    C1     O524      1.07382      .   S
    C273   O525      0.64127      .   S
    C193   O525      0.64127      .   S
    C272   O526      1.07392      .   S
    C0     O526      1.07392      .   S
    C272   O527      0.64127  1_545   S
    C192   O527      0.64127      .   S
    C274   O528      1.07384      .   S
    C2     O528      1.07384      .   S
    C274   O529      0.64127  1_545   S
    C194   O529      0.64127      .   S
    C275   O530      1.07389      .   S
    C3     O530      1.07389      .   S
    C275   O531      0.64127      .   S
    C195   O531      0.64127      .   S
    C167   O532      0.74232      .   S
    C107   O532      0.74232      .   S
    C167   O533      0.70373      .   S
    C163   O533      0.70373      .   S
    C165   O534      0.74234      .   S
    C105   O534      0.74234      .   S
    C165   O535      0.70374      .   S
    C161   O535      0.70374      .   S
    C106   O536      0.74233      .   S
    C166   O536      0.74233      .   S
    C106   O537      0.70283      .   S
    C102   O537      0.70283      .   S
    C107   O538      0.70281      .   S
    C103   O538      0.70281      .   S
    C105   O539      0.70284      .   S
    C101   O539      0.70284      .   S
    C104   O540      0.74233      .   S
    C164   O540      0.74233      .   S
    C104   O541      0.70281      .   S
    C100   O541      0.70281      .   S
    C166   O542      0.70283      .   S
    C162   O542      0.70283      .   S
    C164   O543      0.70280      .   S
    C160   O543      0.70280      .   S
    C243   O544      1.08024      .   S
    C2     O544      1.08024  1_545   S
    C243   O545      0.67307      .   S
    C99    O545      0.67307      .   S
    C240   O546      1.08029      .   S
    C1     O546      1.08029      .   S
    C240   O547      0.67306      .   S
    C96    O547      0.67306      .   S
    C241   O548      1.08023      .   S
    C0     O548      1.08023  1_545   S
    C241   O549      0.67305      .   S
    C97    O549      0.67305      .   S
    C253   O550      1.08028      .   S
    C1     O550      1.08028      .   S
    C253   O551      0.67306      .   S
    C157   O551      0.67306      .   S
    C242   O552      1.08028      .   S
    C3     O552      1.08028      .   S
    C242   O553      0.67308      .   S
    C98    O553      0.67308      .   S
    C254   O554      1.08028      .   S
    C2     O554      1.08028      .   S
    C254   O555      0.67305      .   S
    C158   O555      0.67305      .   S
    C255   O556      1.08027      .   S
    C3     O556      1.08027      .   S
    C255   O557      0.67305      .   S
    C159   O557      0.67305      .   S
    C252   O558      1.08027      .   S
    C0     O558      1.08027      .   S
    C252   O559      0.67307      .   S
    C156   O559      0.67307      .   S
    C3     O560      1.04104      .   S
    C267   O560      1.04104      .   S
    C3     O561      1.14918      .   S
    C279   O561      1.14918      .   S
    C1     O562      1.04099      .   S
    C265   O562      1.04099      .   S
    C1     O563      1.14922      .   S
    C277   O563      1.14922      .   S
    C2     O564      1.04101      .   S
    C266   O564      1.04101  1_565   S
    C2     O565      1.14897      .   S
    C278   O565      1.14897      .   S
    C0     O566      1.04106  1_545   S
    C264   O566      1.04106      .   S
    C0     O567      1.14919      .   S
    C276   O567      1.14919      .   S
    C177   O568      0.63983      .   S
    C265   O568      0.63983      .   S
    C177   O569      0.75229      .   S
    C181   O569      0.75229      .   S
    C179   O570      0.63962      .   S
    C267   O570      0.63962      .   S
    C179   O571      0.75215      .   S
    C183   O571      0.75215      .   S
    C178   O572      0.63962      .   S
    C266   O572      0.63962      .   S
    C178   O573      0.75215      .   S
    C182   O573      0.75215      .   S
    C176   O574      0.63962      .   S
    C264   O574      0.63962      .   S
    C176   O575      0.75212      .   S
    C180   O575      0.75212      .   S
    C185   O576      0.70443      .   S
    C181   O576      0.70443      .   S
    C185   O577      0.70532      .   S
    C191   O577      0.70532      .   S
    C187   O578      0.70090      .   S
    C183   O578      0.70090      .   S
    C187   O579      0.70256      .   S
    C189   O579      0.70256  1_455   S
    C184   O580      0.70085      .   S
    C180   O580      0.70085      .   S
    C184   O581      0.70260      .   S
    C190   O581      0.70260      .   S
    C186   O582      0.70088      .   S
    C182   O582      0.70088      .   S
    C186   O583      0.70249      .   S
    C188   O583      0.70249  1_455   S
    C98    O584      0.69476      .   S
    C102   O584      0.69476      .   S
    C98    O585      0.54494      .   S
    C10    O585      0.54494      .   S
    C157   O586      0.69476      .   S
    C161   O586      0.69476      .   S
    C157   O587      0.54465      .   S
    C57    O587      0.54465      .   S
    C159   O588      0.69476      .   S
    C163   O588      0.69476      .   S
    C159   O589      0.54495      .   S
    C59    O589      0.54495      .   S
    C96    O590      0.69476      .   S
    C100   O590      0.69476      .   S
    C96    O591      0.54493      .   S
    C8     O591      0.54493      .   S
    C156   O592      0.69476      .   S
    C160   O592      0.69476      .   S
    C156   O593      0.54494      .   S
    C56    O593      0.54494      .   S
    C99    O594      0.69476      .   S
    C103   O594      0.69476      .   S
    C99    O595      0.54494      .   S
    C11    O595      0.54494      .   S
    C97    O596      0.69475      .   S
    C101   O596      0.69475      .   S
    C97    O597      0.54496      .   S
    C9     O597      0.54496      .   S
    C158   O598      0.69476      .   S
    C162   O598      0.69476      .   S
    C158   O599      0.54496      .   S
    C58    O599      0.54496      .   S
    C102   O600      0.54398      .   S
    C14    O600      0.54398      .   S
    C163   O601      0.54396      .   S
    C63    O601      0.54396      .   S
    C161   O602      0.54398      .   S
    C61    O602      0.54398      .   S
    C160   O603      0.54050      .   S
    C60    O603      0.54050      .   S
    C100   O604      0.54396      .   S
    C12    O604      0.54396      .   S
    C101   O605      0.54374      .   S
    C13    O605      0.54374      .   S
    C103   O606      0.54397      .   S
    C15    O606      0.54397      .   S
    C162   O607      0.54366      .   S
    C62    O607      0.54366      .   S
    C193   O608      0.75178      .   S
    C189   O608      0.75178      .   S
    C193   O609      0.63481      .   S
    C277   O609      0.63481      .   S
    C194   O610      0.75177      .   S
    C190   O610      0.75177      .   S
    C194   O611      0.63469      .   S
    C278   O611      0.63469  1_545   S
    C195   O612      0.75176      .   S
    C191   O612      0.75176      .   S
    C195   O613      0.63479      .   S
    C279   O613      0.63479      .   S
    C192   O614      0.75167      .   S
    C188   O614      0.75167      .   S
    C192   O615      0.63479      .   S
    C276   O615      0.63479  1_545   S
    C183   O616      0.70035      .   S
    C207   O616      0.70035      .   S
    C181   O617      0.70034      .   S
    C205   O617      0.70034      .   S
    C180   O618      0.70041      .   S
    C204   O618      0.70041      .   S
    C182   O619      0.70034      .   S
    C206   O619      0.70034      .   S
    C188   O620      0.69794      .   S
    C196   O620      0.69794      .   S
    C190   O621      0.69780      .   S
    C198   O621      0.69780      .   S
    C189   O622      0.69766      .   S
    C197   O622      0.69766      .   S
    C191   O623      0.69780      .   S
    C199   O623      0.69780      .   S
    C207   O624      0.54467      .   S
    C83    O624      0.54467      .   S
    C207   O625      0.70065      .   S
    C203   O625      0.70065      .   S
    C205   O626      0.54471      .   S
    C81    O626      0.54471      .   S
    C205   O627      0.70065      .   S
    C201   O627      0.70065      .   S
    C204   O628      0.54467      .   S
    C80    O628      0.54467      .   S
    C204   O629      0.70062      .   S
    C200   O629      0.70062      .   S
    C206   O630      0.54470      .   S
    C82    O630      0.54470      .   S
    C206   O631      0.70066      .   S
    C202   O631      0.70066      .   S
    C197   O632      0.70317      .   S
    C203   O632      0.70317  1_655   S
    C197   O633      0.54415      .   S
    C77    O633      0.54415      .   S
    C199   O634      0.70314      .   S
    C201   O634      0.70314      .   S
    C199   O635      0.54410      .   S
    C79    O635      0.54410      .   S
    C196   O636      0.70311      .   S
    C202   O636      0.70311  1_655   S
    C196   O637      0.54411      .   S
    C76    O637      0.54411      .   S
    C198   O638      0.70314      .   S
    C200   O638      0.70314      .   S
    C198   O639      0.54410      .   S
    C78    O639      0.54410      .   S
    C200   O640      0.70913      .   S
    C256   O640      0.70913      .   S
    C201   O641      0.70913      .   S
    C257   O641      0.70913      .   S
    C203   O642      0.70913      .   S
    C259   O642      0.70913      .   S
    C202   O643      0.70913      .   S
    C258   O643      0.70913      .   S
