# CIF file generated by openbabel 2.4.90, see http://openbabel.sf.net
data_I
_chemical_name_common ''
_cell_length_a 20.243
_cell_length_b 22.896
_cell_length_c 13.99
_cell_angle_alpha 90.005
_cell_angle_beta 100.938
_cell_angle_gamma 89.996
_space_group_name_H-M_alt 'P 1'
_space_group_name_Hall 'P 1'
loop_
    _symmetry_equiv_pos_as_xyz
    x,y,z
loop_
    _atom_site_label
    _atom_site_type_symbol
    _atom_site_fract_x
    _atom_site_fract_y
    _atom_site_fract_z
    _atom_site_occupancy
    N0      N    0.81036   0.75000   0.40448   1.000
    N1      N    0.81036   0.25000   0.40448   1.000
    N2      N    0.18965   0.25000   0.59546   1.000
    N3      N    0.18965   0.75000   0.59547   1.000
    N4      N    0.00000   0.99999   0.99998   1.000
    N5      N    0.00001   0.50000   0.99998   1.000
    N6      N    0.50000   0.50000   0.99995   1.000
    N7      N    0.50001   0.99999   0.99996   1.000
    N8      N    0.68965   0.75000   0.59548   1.000
    N9      N    0.68965   0.25000   0.59547   1.000
    N10     N    0.31036   0.75000   0.40444   1.000
    N11     N    0.31036   0.25000   0.40447   1.000
    Zr12    Zr   0.18637   0.00000   0.60058   1.000
    O13     O    0.18760   0.07428   0.59865   1.000
    O14     O    0.13772   1.00000   0.68113   1.000
    O15     O    0.27677   1.00000   0.71120   1.000
    O16     O    0.18760   0.92572   0.59865   1.000
    O17     O    0.13442   1.00000   0.71804   1.000
    O18     O    0.12640   1.00000   0.69948   1.000
    Zr19    Zr   0.18637   0.50000   0.60058   1.000
    O20     O    0.12641   0.50000   0.69948   1.000
    O21     O    0.18760   0.42572   0.59864   1.000
    O22     O    0.18760   0.57428   0.59865   1.000
    O23     O    0.13443   0.50000   0.71804   1.000
    O24     O    0.27677   0.50000   0.71120   1.000
    O25     O    0.13772   0.50000   0.68112   1.000
    Zr26    Zr   0.68637   0.00000   0.60058   1.000
    O27     O    0.62641   1.00000   0.69947   1.000
    O28     O    0.68760   0.92572   0.59865   1.000
    O29     O    0.63443   1.00000   0.71803   1.000
    O30     O    0.63772   1.00000   0.68112   1.000
    O31     O    0.77677   1.00000   0.71120   1.000
    O32     O    0.68760   0.07428   0.59865   1.000
    Zr33    Zr   0.81364   0.50000   0.39938   1.000
    O34     O    0.86558   0.50000   0.28192   1.000
    O35     O    0.86229   0.50000   0.31883   1.000
    O36     O    0.72324   0.50000   0.28875   1.000
    O37     O    0.87360   0.50000   0.30048   1.000
    O38     O    0.81241   0.42572   0.40131   1.000
    O39     O    0.81241   0.57428   0.40131   1.000
    Zr40    Zr   0.68637   0.50000   0.60058   1.000
    O41     O    0.77677   0.50000   0.71120   1.000
    O42     O    0.68760   0.57428   0.59865   1.000
    O43     O    0.63772   0.50000   0.68112   1.000
    O44     O    0.63443   0.50000   0.71803   1.000
    O45     O    0.62641   0.50000   0.69947   1.000
    O46     O    0.68760   0.42572   0.59865   1.000
    Zr47    Zr   0.31364   1.00000   0.39939   1.000
    O48     O    0.22324   1.00000   0.28876   1.000
    O49     O    0.36229   1.00000   0.31873   1.000
    O50     O    0.37360   1.00000   0.30049   1.000
    O51     O    0.36558   1.00000   0.28193   1.000
    O52     O    0.31241   0.92572   0.40131   1.000
    O53     O    0.31241   0.07428   0.40132   1.000
    Zr54    Zr   0.31363   0.50000   0.39939   1.000
    O55     O    0.22324   0.50000   0.28876   1.000
    O56     O    0.31240   0.57428   0.40131   1.000
    O57     O    0.31241   0.42572   0.40132   1.000
    O58     O    0.36558   0.50000   0.28192   1.000
    O59     O    0.37360   0.50000   0.30048   1.000
    O60     O    0.36229   0.50000   0.31883   1.000
    Zr61    Zr   0.81364   1.00000   0.39940   1.000
    O62     O    0.86229   1.00000   0.31885   1.000
    O63     O    0.87360   1.00000   0.30050   1.000
    O64     O    0.86558   1.00000   0.28193   1.000
    O65     O    0.72324   1.00000   0.28876   1.000
    O66     O    0.81241   0.07428   0.40133   1.000
    O67     O    0.81241   0.92572   0.40133   1.000
loop_
    _geom_bond_atom_site_label_1
    _geom_bond_atom_site_label_2
    _geom_bond_distance
    _geom_bond_site_symmetry_2
    _ccdc_geom_bond_type
    Zr12   O13       1.70121      .   S
    N2     O13       4.02382      .   S
    Zr12   O14       1.63123  1_545   S
    N4     O14       5.69115      .   S
    Zr12   O15       2.16077  1_545   S
    N7     O15       5.46018      .   S
    Zr12   O16       1.70117  1_545   S
    N3     O16       4.02376      .   S
    Zr12   O17       2.11224  1_545   S
    N4     O17       5.19961      .   S
    Zr12   O18       2.00625  1_545   S
    N4     O18       5.32012      .   S
    Zr19   O20       2.00622      .   S
    N5     O20       5.32008      .   S
    Zr19   O21       1.70122      .   S
    N2     O21       4.02384      .   S
    Zr19   O22       1.70122      .   S
    N3     O22       4.02384      .   S
    Zr19   O23       2.11223      .   S
    N5     O23       5.19955      .   S
    Zr19   O24       2.16071      .   S
    N6     O24       5.46005      .   S
    Zr19   O25       1.63112      .   S
    N5     O25       5.69121      .   S
    Zr26   O27       2.00616  1_545   S
    N7     O27       5.31987      .   S
    Zr26   O28       1.70118  1_545   S
    N8     O28       4.02377      .   S
    Zr26   O29       2.11210  1_545   S
    N7     O29       5.19941      .   S
    Zr26   O30       1.63115  1_545   S
    N7     O30       5.69090      .   S
    Zr26   O31       2.16078  1_545   S
    N4     O31       5.46026  1_455   S
    Zr26   O32       1.70121      .   S
    N9     O32       4.02384      .   S
    Zr33   O34       2.11225      .   S
    N5     O34       5.19965  1_456   S
    Zr33   O35       1.63125      .   S
    N5     O35       5.69118  1_456   S
    Zr33   O36       2.16085      .   S
    N6     O36       5.46044  1_556   S
    Zr33   O37       2.00624      .   S
    N5     O37       5.32017  1_456   S
    Zr33   O38       1.70121      .   S
    N1     O38       4.02383      .   S
    Zr33   O39       1.70119      .   S
    N0     O39       4.02380      .   S
    Zr40   O41       2.16077      .   S
    N5     O41       5.46023  1_455   S
    Zr40   O42       1.70121      .   S
    N8     O42       4.02383      .   S
    Zr40   O43       1.63119      .   S
    N6     O43       5.69092      .   S
    Zr40   O44       2.11217      .   S
    N6     O44       5.19941      .   S
    Zr40   O45       2.00619      .   S
    N6     O45       5.31990      .   S
    Zr40   O46       1.70121      .   S
    N9     O46       4.02382      .   S
    Zr47   O48       2.16080      .   S
    N4     O48       5.46030  1_556   S
    Zr47   O49       1.63245      .   S
    N7     O49       5.69025  1_556   S
    Zr47   O50       2.00634      .   S
    N7     O50       5.32045  1_556   S
    Zr47   O51       2.11235      .   S
    N7     O51       5.19991  1_556   S
    Zr47   O52       1.70117      .   S
    N10    O52       4.02376      .   S
    Zr47   O53       1.70120  1_565   S
    N11    O53       4.02381      .   S
    Zr54   O55       2.16079      .   S
    N5     O55       5.46026  1_556   S
    Zr54   O56       1.70121      .   S
    N10    O56       4.02383      .   S
    Zr54   O57       1.70122      .   S
    N11    O57       4.02384      .   S
    Zr54   O58       2.11236      .   S
    N6     O58       5.19994  1_556   S
    Zr54   O59       2.00634      .   S
    N6     O59       5.32048  1_556   S
    Zr54   O60       1.63136      .   S
    N6     O60       5.69148  1_556   S
    Zr61   O62       1.63125      .   S
    N4     O62       5.69123  1_456   S
    Zr61   O63       2.00627      .   S
    N4     O63       5.32020  1_456   S
    Zr61   O64       2.11234      .   S
    N4     O64       5.19962  1_456   S
    Zr61   O65       2.16087      .   S
    N7     O65       5.46050  1_556   S
    Zr61   O66       1.70122  1_565   S
    N1     O66       4.02384      .   S
    Zr61   O67       1.70118      .   S
    N0     O67       4.02378      .   S
