# CIF file generated by openbabel 2.4.90, see http://openbabel.sf.net
data_I
_chemical_name_common ''
_cell_length_a 20.243
_cell_length_b 22.896
_cell_length_c 13.99
_cell_angle_alpha 90.005
_cell_angle_beta 100.938
_cell_angle_gamma 89.996
_space_group_name_H-M_alt 'P 1'
_space_group_name_Hall 'P 1'
loop_
    _symmetry_equiv_pos_as_xyz
    x,y,z
loop_
    _atom_site_label
    _atom_site_type_symbol
    _atom_site_fract_x
    _atom_site_fract_y
    _atom_site_fract_z
    _atom_site_occupancy
    Zr0     Zr   0.18637   0.00000   0.60058   1.000
    Zr1     Zr   0.18637   0.50000   0.60058   1.000
    Zr2     Zr   0.68637   0.00000   0.60058   1.000
    Zr3     Zr   0.68637   0.50000   0.60058   1.000
    Zr4     Zr   0.31364   1.00000   0.39939   1.000
    Zr5     Zr   0.31363   0.50000   0.39939   1.000
    Zr6     Zr   0.81364   1.00000   0.39940   1.000
    Zr7     Zr   0.81364   0.50000   0.39938   1.000
    N8      N    0.81036   0.75000   0.40448   1.000
    O9      O    0.81118   0.85144   0.40325   1.000
    O10     O    0.81118   0.64856   0.40323   1.000
    N11     N    0.81036   0.25000   0.40448   1.000
    O12     O    0.81118   0.35144   0.40325   1.000
    O13     O    0.81118   0.14856   0.40325   1.000
    N14     N    0.18965   0.25000   0.59546   1.000
    O15     O    0.18883   0.14856   0.59671   1.000
    O16     O    0.18883   0.35144   0.59671   1.000
    N17     N    0.18965   0.75000   0.59547   1.000
    O18     O    0.18883   0.64856   0.59671   1.000
    O19     O    0.18883   0.85144   0.59671   1.000
    N20     N    0.00000   0.99999   0.99998   1.000
    O21     O    0.91753   1.00000   0.16447   1.000
    O22     O    0.86716   1.00000   0.82183   1.000
    O23     O    0.13284   1.00000   0.17814   1.000
    O24     O    0.08907   1.00000   0.76168   1.000
    O25     O    0.93356   1.00000   0.20159   1.000
    O26     O    0.91094   1.00000   0.23829   1.000
    O27     O    0.06644   1.00000   0.79838   1.000
    O28     O    0.08248   1.00000   0.83549   1.000
    N29     N    0.00001   0.50000   0.99998   1.000
    O30     O    0.91753   0.50000   0.16447   1.000
    O31     O    0.13284   0.50000   0.17814   1.000
    O32     O    0.08907   0.50000   0.76166   1.000
    O33     O    0.93357   0.50001   0.20159   1.000
    O34     O    0.86717   0.50000   0.82182   1.000
    O35     O    0.91094   0.50001   0.23828   1.000
    O36     O    0.06645   0.50000   0.79837   1.000
    O37     O    0.08248   0.50000   0.83549   1.000
    N38     N    0.50000   0.50000   0.99995   1.000
    O39     O    0.36716   0.50000   0.82181   1.000
    O40     O    0.58248   0.50000   0.83548   1.000
    O41     O    0.63284   0.50000   0.17812   1.000
    O42     O    0.58907   0.50000   0.76167   1.000
    O43     O    0.43356   0.50000   0.20158   1.000
    O44     O    0.41752   0.50000   0.16446   1.000
    O45     O    0.41094   0.50000   0.23827   1.000
    O46     O    0.56644   0.50000   0.79836   1.000
    N47     N    0.50001   0.99999   0.99996   1.000
    O48     O    0.36716   1.00000   0.82182   1.000
    O49     O    0.63285   0.99999   0.17813   1.000
    O50     O    0.58907   1.00000   0.76167   1.000
    O51     O    0.43357   1.00000   0.20158   1.000
    O52     O    0.41753   1.00000   0.16446   1.000
    O53     O    0.41094   1.00000   0.23808   1.000
    O54     O    0.56645   1.00000   0.79836   1.000
    O55     O    0.58248   1.00000   0.83547   1.000
    N56     N    0.68965   0.75000   0.59548   1.000
    O57     O    0.68883   0.64856   0.59672   1.000
    O58     O    0.68884   0.85144   0.59672   1.000
    N59     N    0.68965   0.25000   0.59547   1.000
    O60     O    0.68883   0.14856   0.59671   1.000
    O61     O    0.68883   0.35144   0.59671   1.000
    N62     N    0.31036   0.75000   0.40444   1.000
    O63     O    0.31118   0.85144   0.40323   1.000
    O64     O    0.31117   0.64856   0.40323   1.000
    N65     N    0.31036   0.25000   0.40447   1.000
    O66     O    0.31117   0.14856   0.40325   1.000
    O67     O    0.31118   0.35144   0.40324   1.000
loop_
    _geom_bond_atom_site_label_1
    _geom_bond_atom_site_label_2
    _geom_bond_distance
    _geom_bond_site_symmetry_2
    _ccdc_geom_bond_type
    N8     O9        2.32268      .   S
    Zr6    O9        3.40236      .   S
    N8     O10       2.32268      .   S
    Zr7    O10       3.40239      .   S
    N11    O12       2.32270      .   S
    Zr7    O12       3.40242      .   S
    N11    O13       2.32270      .   S
    Zr6    O13       3.40243  1_565   S
    N14    O15       2.32269      .   S
    Zr0    O15       3.40241      .   S
    N14    O16       2.32270      .   S
    Zr1    O16       3.40243      .   S
    N17    O18       2.32270      .   S
    Zr1    O18       3.40243      .   S
    N17    O19       2.32267      .   S
    Zr0    O19       3.40234  1_545   S
    N20    O21       3.08877  1_456   S
    Zr6    O21       4.22467      .   S
    N20    O22       3.30145  1_455   S
    Zr2    O22       4.32156  1_545   S
    N20    O23       3.30147  1_556   S
    Zr4    O23       4.32161      .   S
    N20    O24       4.07999      .   S
    Zr0    O24       3.26246  1_545   S
    N20    O25       3.34721  1_456   S
    Zr6    O25       4.01254      .   S
    N20    O26       4.08004  1_456   S
    Zr6    O26       3.26251      .   S
    N20    O27       3.34715      .   S
    Zr0    O27       4.01251  1_545   S
    N20    O28       3.08886      .   S
    Zr0    O28       4.22448  1_545   S
    N29    O30       3.08889  1_456   S
    Zr7    O30       4.22450      .   S
    N29    O31       3.30145  1_556   S
    Zr5    O31       4.32157      .   S
    N29    O32       4.08017      .   S
    Zr1    O32       3.26224      .   S
    N29    O33       3.34721  1_456   S
    Zr7    O33       4.01249      .   S
    N29    O34       3.30143  1_455   S
    Zr3    O34       4.32155      .   S
    N29    O35       4.08000  1_456   S
    Zr7    O35       3.26251      .   S
    N29    O36       3.34714      .   S
    Zr1    O36       4.01244      .   S
    N29    O37       3.08881      .   S
    Zr1    O37       4.22446      .   S
    N38    O39       3.30132      .   S
    Zr1    O39       4.32141      .   S
    N38    O40       3.08873      .   S
    Zr3    O40       4.22434      .   S
    N38    O41       3.30157  1_556   S
    Zr7    O41       4.32170      .   S
    N38    O42       4.07980      .   S
    Zr3    O42       3.26238      .   S
    N38    O43       3.34742  1_556   S
    Zr5    O43       4.01267      .   S
    N38    O44       3.08907  1_556   S
    Zr5    O44       4.22472      .   S
    N38    O45       4.08019  1_556   S
    Zr5    O45       3.26272      .   S
    N38    O46       3.34700      .   S
    Zr3    O46       4.01238      .   S
    N47    O48       3.30138      .   S
    Zr0    O48       4.32154  1_545   S
    N47    O49       3.30161  1_556   S
    Zr6    O49       4.32174      .   S
    N47    O50       4.07982      .   S
    Zr2    O50       3.26229  1_545   S
    N47    O51       3.34740  1_556   S
    Zr4    O51       4.01267      .   S
    N47    O52       3.08905  1_556   S
    Zr4    O52       4.22470      .   S
    N47    O53       4.07769  1_556   S
    Zr4    O53       3.26490      .   S
    N47    O54       3.34700      .   S
    Zr2    O54       4.01232  1_545   S
    N47    O55       3.08880      .   S
    Zr2    O55       4.22420  1_545   S
    N56    O57       2.32270      .   S
    Zr3    O57       3.40241      .   S
    N56    O58       2.32267      .   S
    Zr2    O58       3.40235  1_545   S
    N59    O60       2.32270      .   S
    Zr2    O60       3.40243      .   S
    N59    O61       2.32269      .   S
    Zr3    O61       3.40241      .   S
    N62    O63       2.32267      .   S
    Zr4    O63       3.40234      .   S
    N62    O64       2.32270      .   S
    Zr5    O64       3.40241      .   S
    N65    O66       2.32269      .   S
    Zr4    O66       3.40240  1_565   S
    N65    O67       2.32270      .   S
    Zr5    O67       3.40243      .   S
