# CIF file generated by openbabel 2.4.90, see http://openbabel.sf.net
data_I
_chemical_name_common ''
_cell_length_a 14.575
_cell_length_b 14.7
_cell_length_c 26.013
_cell_angle_alpha 90.15
_cell_angle_beta 90.408
_cell_angle_gamma 90.188
_space_group_name_H-M_alt 'P 1'
_space_group_name_Hall 'P 1'
loop_
    _symmetry_equiv_pos_as_xyz
    x,y,z
loop_
    _atom_site_label
    _atom_site_type_symbol
    _atom_site_fract_x
    _atom_site_fract_y
    _atom_site_fract_z
    _atom_site_occupancy
    Zn0     Zn   0.73095   0.95272   0.65303   1.000
    Zn1     Zn   0.76530   0.43737   0.89324   1.000
    Zn2     Zn   0.76631   0.04716   0.15302   1.000
    Zn3     Zn   0.26166   0.05806   0.10677   1.000
    Zn4     Zn   0.26940   0.44847   0.84824   1.000
    Zn5     Zn   0.23441   0.93768   0.60688   1.000
    Zn6     Zn   0.23092   0.54735   0.34651   1.000
    Zn7     Zn   0.26307   0.44135   0.60683   1.000
    Zn8     Zn   0.26896   0.04709   0.34710   1.000
    Zn9     Zn   0.23449   0.55873   0.10677   1.000
    Zn10    Zn   0.23378   0.94859   0.84700   1.000
    Zn11    Zn   0.73825   0.93770   0.89321   1.000
    Zn12    Zn   0.72998   0.54696   0.15262   1.000
    Zn13    Zn   0.76562   0.06193   0.39304   1.000
    Zn14    Zn   0.76609   0.45297   0.65340   1.000
    H15     H    0.73650   0.94892   0.53591   1.000
    H16     H    0.75001   0.82872   0.46815   1.000
    H17     H    0.71555   0.75395   0.65079   1.000
    H18     H    0.28127   0.62015   0.24295   1.000
    H19     H    0.42339   0.65593   0.19414   1.000
    H20     H    0.43279   0.52833   0.36852   1.000
    H21     H    0.75872   0.04933   0.03641   1.000
    H22     H    0.74547   0.16779   0.96798   1.000
    H23     H    0.78109   0.24697   0.15047   1.000
    H24     H    0.21722   0.37950   0.74364   1.000
    H25     H    0.07414   0.34555   0.69403   1.000
    H26     H    0.06802   0.46512   0.87054   1.000
    Zn27    Zn   0.73458   0.55847   0.39300   1.000
    H28     H    0.26276   0.44600   0.96420   1.000
    H29     H    0.24879   0.32718   0.03242   1.000
    H30     H    0.28555   0.24874   0.85020   1.000
    H31     H    0.71678   0.11919   0.25641   1.000
    H32     H    0.57457   0.15380   0.30548   1.000
    H33     H    0.56500   0.02756   0.13038   1.000
    H34     H    0.23573   0.54988   0.46274   1.000
    H35     H    0.24842   0.66856   0.53150   1.000
    H36     H    0.21662   0.74731   0.34902   1.000
    H37     H    0.78250   0.87872   0.75627   1.000
    H38     H    0.92524   0.84124   0.80503   1.000
    H39     H    0.93242   0.97006   0.63096   1.000
    H40     H    0.26138   0.05128   0.46385   1.000
    H41     H    0.24646   0.17137   0.53153   1.000
    H42     H    0.28382   0.24630   0.34909   1.000
    H43     H    0.71707   0.37781   0.75649   1.000
    H44     H    0.57519   0.33996   0.80509   1.000
    H45     H    0.56474   0.47263   0.63195   1.000
    H46     H    0.24200   0.94640   0.96330   1.000
    H47     H    0.25523   0.82812   0.03189   1.000
    H48     H    0.21874   0.74855   0.84948   1.000
    H49     H    0.78219   0.61917   0.25593   1.000
    H50     H    0.92563   0.65571   0.30477   1.000
    H51     H    0.93073   0.52937   0.12900   1.000
    H52     H    0.73680   0.54972   0.03597   1.000
    H53     H    0.75191   0.66907   0.96815   1.000
    H54     H    0.71358   0.74607   0.15044   1.000
    H55     H    0.28301   0.87814   0.74330   1.000
    H56     H    0.42505   0.84340   0.69414   1.000
    H57     H    0.43512   0.96763   0.86970   1.000
    H58     H    0.75977   0.44956   0.53684   1.000
    H59     H    0.74700   0.32976   0.46867   1.000
    H60     H    0.78106   0.25395   0.65145   1.000
    H61     H    0.21750   0.11844   0.24329   1.000
    H62     H    0.07468   0.15482   0.19429   1.000
    H63     H    0.06774   0.03037   0.36939   1.000
    C64     C    0.24040   0.87428   0.95300   1.000
    C65     C    0.24815   0.80825   0.99171   1.000
    C66     C    0.24772   0.71609   0.97820   1.000
    C67     C    0.23732   0.69295   0.92605   1.000
    C68     C    0.73541   0.87702   0.54577   1.000
    C69     C    0.74329   0.80993   0.50839   1.000
    C70     C    0.74368   0.71813   0.52243   1.000
    C71     C    0.73353   0.69644   0.57465   1.000
    C72     C    0.72553   0.76741   0.60998   1.000
    C73     C    0.75756   0.64558   0.48232   1.000
    C74     C    0.72422   0.60094   0.59484   1.000
    C75     C    0.34893   0.60825   0.25968   1.000
    C76     C    0.42839   0.62795   0.23280   1.000
    C77     C    0.51440   0.61136   0.25518   1.000
    C78     C    0.51637   0.57626   0.30547   1.000
    C79     C    0.43357   0.55719   0.32995   1.000
    C80     C    0.59972   0.62817   0.22374   1.000
    C81     C    0.60343   0.56262   0.33488   1.000
    C82     C    0.76012   0.12144   0.04590   1.000
    C83     C    0.75237   0.18757   0.00818   1.000
    C84     C    0.75255   0.27973   0.02174   1.000
    C85     C    0.76270   0.30275   0.07393   1.000
    C86     C    0.77077   0.23256   0.10960   1.000
    N87     N    0.72683   0.85582   0.59612   1.000
    N88     N    0.35121   0.57246   0.30766   1.000
    N89     N    0.76917   0.14382   0.09624   1.000
    N90     N    0.14845   0.42388   0.80909   1.000
    C91     C    0.74017   0.35109   0.98094   1.000
    C92     C    0.77193   0.39873   0.09386   1.000
    C93     C    0.14987   0.39029   0.76050   1.000
    C94     C    0.06991   0.37166   0.73318   1.000
    C95     C    0.98432   0.38688   0.75575   1.000
    C96     C    0.98326   0.41955   0.80665   1.000
    C97     C    0.06652   0.43774   0.83156   1.000
    C98     C    0.89843   0.37080   0.72402   1.000
    C99     C    0.89664   0.43205   0.83598   1.000
    C100    C    0.26414   0.37390   0.95466   1.000
    C101    C    0.25600   0.30765   0.99227   1.000
    C102    C    0.25606   0.21554   0.97860   1.000
    C103    C    0.26683   0.19253   0.92653   1.000
    C104    C    0.27514   0.26286   0.89094   1.000
    C105    C    0.24267   0.14449   0.01932   1.000
    C106    C    0.27635   0.09668   0.90653   1.000
    C107    C    0.64903   0.10706   0.23970   1.000
    C108    C    0.56964   0.12603   0.26668   1.000
    C109    C    0.48366   0.10905   0.24419   1.000
    C110    C    0.48139   0.07444   0.19369   1.000
    C111    C    0.56416   0.05611   0.16910   1.000
    C112    C    0.39881   0.12534   0.27592   1.000
    C113    C    0.39407   0.06091   0.16430   1.000
    C114    C    0.23489   0.62196   0.45337   1.000
    C115    C    0.24229   0.68817   0.49131   1.000
    C116    C    0.24285   0.78028   0.47796   1.000
    C117    C    0.23348   0.80330   0.42581   1.000
    C118    C    0.22602   0.73306   0.38985   1.000
    C119    C    0.25562   0.85152   0.51898   1.000
    C120    C    0.22455   0.89932   0.40618   1.000
    C121    C    0.84994   0.89015   0.73961   1.000
    C122    C    0.92972   0.86947   0.76644   1.000
    C123    C    0.00000   0.88546   0.74414   1.000
    C124    C    0.00000   0.92073   0.69387   1.000
    C125    C    0.93371   0.94087   0.66946   1.000
    C126    C    0.10102   0.86798   0.77584   1.000
    C127    C    0.10347   0.93360   0.66454   1.000
    C128    C    0.26256   0.12319   0.45399   1.000
    C129    C    0.25382   0.19025   0.49133   1.000
    C130    C    0.25340   0.28205   0.47731   1.000
    C131    C    0.26423   0.30377   0.42513   1.000
    C132    C    0.27323   0.23286   0.38985   1.000
    C133    C    0.23893   0.35459   0.51738   1.000
    C134    C    0.27326   0.39933   0.40502   1.000
    C135    C    0.64928   0.38996   0.73997   1.000
    C136    C    0.56999   0.36912   0.76671   1.000
    C137    C    0.48383   0.38609   0.74459   1.000
    C138    C    0.48141   0.42265   0.69460   1.000
    C139    C    0.56410   0.44276   0.67027   1.000
    C140    C    0.39897   0.36813   0.77619   1.000
    C141    C    0.39417   0.43670   0.66535   1.000
    C142    C    0.22924   0.76301   0.89026   1.000
    C143    C    0.25996   0.64474   0.01899   1.000
    C144    C    0.22802   0.59691   0.90631   1.000
    C145    C    0.84950   0.60802   0.23909   1.000
    C146    C    0.92958   0.62811   0.26593   1.000
    C147    C    0.00000   0.61227   0.24331   1.000
    C148    C    0.00000   0.57766   0.19281   1.000
    C149    C    0.93258   0.55815   0.16836   1.000
    C150    C    0.10072   0.62880   0.27502   1.000
    C151    C    0.10254   0.56464   0.16346   1.000
    C152    C    0.73553   0.62174   0.04573   1.000
    C153    C    0.74430   0.68832   0.00833   1.000
    C154    C    0.74454   0.78031   0.02225   1.000
    C155    C    0.73324   0.80279   0.07435   1.000
    C156    C    0.72430   0.73221   0.10970   1.000
    C157    C    0.75928   0.85203   0.98200   1.000
    C158    C    0.72413   0.89851   0.09453   1.000
    C159    C    0.35080   0.88967   0.76010   1.000
    C160    C    0.43011   0.87061   0.73306   1.000
    C161    C    0.51616   0.88683   0.75564   1.000
    C162    C    0.51852   0.92083   0.80627   1.000
    C163    C    0.43586   0.93939   0.83090   1.000
    C164    C    0.60112   0.87066   0.72398   1.000
    C165    C    0.60587   0.93377   0.83569   1.000
    C166    C    0.76101   0.37760   0.54653   1.000
    C167    C    0.75357   0.31076   0.50894   1.000
    C168    C    0.75354   0.21888   0.52278   1.000
    C169    C    0.76353   0.19679   0.57501   1.000
    C170    C    0.77106   0.26756   0.61059   1.000
    C171    C    0.74031   0.14682   0.48223   1.000
    C172    C    0.77296   0.10114   0.59494   1.000
    C173    C    0.15007   0.10761   0.26009   1.000
    C174    C    0.07027   0.12766   0.23310   1.000
    C175    C    0.98460   0.11231   0.25563   1.000
    C176    C    0.98329   0.07834   0.30617   1.000
    C177    C    0.06639   0.05873   0.33070   1.000
    C178    C    0.89893   0.12912   0.22398   1.000
    C179    C    0.89674   0.06601   0.33563   1.000
    N180    N    0.27336   0.35153   0.90447   1.000
    N181    N    0.64649   0.07156   0.19150   1.000
    N182    N    0.22705   0.64434   0.40300   1.000
    N183    N    0.85167   0.92638   0.69170   1.000
    N184    N    0.27209   0.14446   0.40371   1.000
    N185    N    0.64659   0.42722   0.69236   1.000
    N186    N    0.23108   0.85175   0.90364   1.000
    N187    N    0.85082   0.57251   0.19096   1.000
    N188    N    0.72590   0.64364   0.09597   1.000
    N189    N    0.35346   0.92462   0.80837   1.000
    N190    N    0.76949   0.35602   0.59688   1.000
    N191    N    0.14839   0.07259   0.30824   1.000
    O192    O    0.72672   0.66563   0.43674   1.000
    O193    O    0.79733   0.57303   0.49334   1.000
    O194    O    0.78849   0.57703   0.62695   1.000
    O195    O    0.65646   0.55442   0.58224   1.000
    O196    O    0.63061   0.55370   0.20390   1.000
    O197    O    0.62862   0.70694   0.21771   1.000
    O198    O    0.67721   0.60143   0.32016   1.000
    O199    O    0.60215   0.51535   0.37620   1.000
    O200    O    0.76942   0.32838   0.93561   1.000
    O201    O    0.70339   0.42565   0.99105   1.000
    O202    O    0.70716   0.42328   0.12500   1.000
    O203    O    0.83988   0.44501   0.08204   1.000
    O204    O    0.86723   0.44538   0.70445   1.000
    O205    O    0.86943   0.29204   0.71771   1.000
    O206    O    0.82237   0.39480   0.82010   1.000
    O207    O    0.89861   0.47730   0.87818   1.000
    O208    O    0.26932   0.16803   0.06522   1.000
    O209    O    0.20716   0.06907   0.00000   1.000
    O210    O    0.21097   0.07122   0.87536   1.000
    O211    O    0.34511   0.05152   0.91820   1.000
    O212    O    0.36768   0.05085   0.29562   1.000
    O213    O    0.37059   0.20409   0.28240   1.000
    O214    O    0.32030   0.09808   0.18009   1.000
    O215    O    0.39481   0.01560   0.12218   1.000
    O216    O    0.22691   0.82858   0.56434   1.000
    O217    O    0.29260   0.92622   0.50900   1.000
    O218    O    0.28978   0.92423   0.37533   1.000
    O219    O    0.15640   0.94503   0.41785   1.000
    O220    O    0.13316   0.94231   0.79573   1.000
    O221    O    0.12881   0.78904   0.78218   1.000
    O222    O    0.17707   0.89495   0.67981   1.000
    O223    O    0.10204   0.98009   0.62291   1.000
    O224    O    0.27023   0.33483   0.56291   1.000
    O225    O    0.19846   0.42673   0.50630   1.000
    O226    O    0.20928   0.42300   0.37268   1.000
    O227    O    0.34055   0.44622   0.41794   1.000
    O228    O    0.36750   0.44217   0.79622   1.000
    O229    O    0.37116   0.28900   0.78226   1.000
    O230    O    0.32040   0.39776   0.67990   1.000
    O231    O    0.39522   0.48443   0.62417   1.000
    O232    O    0.23045   0.66745   0.06426   1.000
    O233    O    0.29681   0.57020   0.00000   1.000
    O234    O    0.29304   0.57194   0.87541   1.000
    O235    O    0.15984   0.55085   0.91798   1.000
    O236    O    0.13262   0.55394   0.29390   1.000
    O237    O    0.12891   0.70760   0.28217   1.000
    O238    O    0.17596   0.60486   0.17820   1.000
    O239    O    0.10149   0.51619   0.12241   1.000
    O240    O    0.73113   0.82999   0.93607   1.000
    O241    O    0.79710   0.92596   0.99312   1.000
    O242    O    0.78852   0.92280   0.12663   1.000
    O243    O    0.65658   0.94485   0.08201   1.000
    O244    O    0.63229   0.94534   0.70451   1.000
    O245    O    0.62938   0.79195   0.71748   1.000
    O246    O    0.67923   0.89520   0.82034   1.000
    O247    O    0.60543   0.98026   0.87744   1.000
    O248    O    0.77284   0.16787   0.43736   1.000
    O249    O    0.69964   0.07415   0.49209   1.000
    O250    O    0.70939   0.07703   0.62700   1.000
    O251    O    0.83992   0.05457   0.58215   1.000
    O252    O    0.86692   0.05451   0.20434   1.000
    O253    O    0.87089   0.20793   0.21760   1.000
    O254    O    0.82317   0.10498   0.32046   1.000
    O255    O    0.89812   0.01953   0.37724   1.000
loop_
    _geom_bond_atom_site_label_1
    _geom_bond_atom_site_label_2
    _geom_bond_distance
    _geom_bond_site_symmetry_2
    _ccdc_geom_bond_type
    O209   C105      1.31865      .   S
    O233   C143      1.31830      .   S
    C83    C84       1.39896      .   S
    C83    C82       1.38737      .   S
    C83    H22       1.08854  1_554   S
    C153   C154      1.39892      .   S
    C153   C152      1.38809      .   S
    C153   H53       1.08863  1_554   S
    C143   O232      1.29972      .   S
    C143   C66       1.50398  1_554   S
    C105   O208      1.29872      .   S
    C105   C102      1.50282  1_554   S
    C84    C85       1.40497      .   S
    C84    C91       1.50457  1_554   S
    C154   C155      1.40510      .   S
    C154   C157      1.50385  1_554   S
    H47    C65       1.08861  1_554   S
    H29    C101      1.08833  1_554   S
    H52    C152      1.08827      .   S
    H21    C82       1.08776      .   S
    C152   N188      1.35350      .   S
    C82    N89       1.35479      .   S
    O232   Zn9       1.94671      .   S
    O208   Zn3       1.95034      .   S
    C85    C92       1.50722      .   S
    C85    C86       1.39407      .   S
    C155   C158      1.50703      .   S
    C155   C156      1.39465      .   S
    O243   C158      1.24115      .   S
    O203   C92       1.24058      .   S
    C92    O202      1.29966      .   S
    C158   O242      1.30021      .   S
    N188   C156      1.34950      .   S
    N188   Zn12      2.05060      .   S
    N89    C86       1.34920      .   S
    N89    Zn2       2.05273      .   S
    Zn3    O215      2.07719      .   S
    Zn3    O214      2.16377      .   S
    Zn9    O239      2.07818      .   S
    Zn9    O238      2.15875      .   S
    C86    H23       1.09274      .   S
    C156   H54       1.09111      .   S
    O215   C113      1.28086      .   S
    O239   C151      1.28197      .   S
    O202   Zn12      1.97947      .   S
    O242   Zn2       1.97962  1_565   S
    H51    C149      1.10694      .   S
    H33    C111      1.09032      .   S
    Zn12   N187      2.05089      .   S
    Zn12   O196      1.97857      .   S
    Zn2    N181      2.05115      .   S
    Zn2    O252      1.97855      .   S
    C151   O238      1.27683      .   S
    C151   C148      1.69430      .   S
    C113   O214      1.27758      .   S
    C113   C110      1.49254      .   S
    C149   N187      1.34959      .   S
    C149   C148      1.20022  1_655   S
    C111   N181      1.34861      .   S
    C111   C110      1.39611      .   S
    N187   C145      1.35549      .   S
    N181   C107      1.35701      .   S
    C148   C147      1.40745      .   S
    C110   C109      1.40767      .   S
    H19    C76       1.08957      .   S
    H62    C174      1.08889      .   S
    O196   C80       1.29273      .   S
    O252   C178      1.29298      .   S
    O253   C178      1.24088      .   S
    O197   C80       1.24147      .   S
    C80    C77       1.51319      .   S
    C178   C175      1.51212      .   S
    C76    C77       1.40083      .   S
    C76    C75       1.38727      .   S
    C174   C175      1.40104  1_455   S
    C174   C173      1.38720      .   S
    C145   H49       1.09006      .   S
    C145   C146      1.38631      .   S
    C107   H31       1.09005      .   S
    C107   C108      1.38634      .   S
    H18    C75       1.08987      .   S
    H61    C173      1.08974      .   S
    C147   C146      1.20973  1_455   S
    C147   C150      1.69522      .   S
    C109   C108      1.40063      .   S
    C109   C112      1.51109      .   S
    C77    C78       1.40766      .   S
    C175   C176      1.40777      .   S
    C75    N88       1.35598      .   S
    C173   N191      1.35577      .   S
    C146   H50       1.08971      .   S
    C108   H32       1.08955      .   S
    C150   O237      1.24085      .   S
    C150   O236      1.29292      .   S
    C112   O213      1.24122      .   S
    C112   O212      1.29255      .   S
    O236   Zn6       1.97698      .   S
    O212   Zn8       1.97331      .   S
    C78    C79       1.39656      .   S
    C78    C81       1.49135      .   S
    C176   C177      1.39620  1_655   S
    C176   C179      1.49155      .   S
    N88    C79       1.34903      .   S
    N88    Zn6       2.06264      .   S
    N191   C177      1.34909      .   S
    N191   Zn8       2.05710      .   S
    O198   C81       1.27735      .   S
    O198   Zn27      2.16222      .   S
    O254   C179      1.27781      .   S
    O254   Zn13      2.16658      .   S
    C79    H20       1.09048      .   S
    C177   H63       1.09048      .   S
    C81    O199      1.28158      .   S
    C179   O255      1.28164      .   S
    Zn6    O226      1.97735      .   S
    Zn6    N182      2.04600      .   S
    Zn8    O218      1.97486  1_545   S
    Zn8    N184      2.05112      .   S
    H36    C118      1.09088      .   S
    H42    C132      1.09102      .   S
    O226   C134      1.30034      .   S
    O218   C120      1.30077      .   S
    O199   Zn27      2.07282      .   S
    O255   Zn13      2.07479      .   S
    C118   N182      1.34923      .   S
    C118   C117      1.39492      .   S
    C132   N184      1.34953      .   S
    C132   C131      1.39414      .   S
    Zn27   O192      1.94488      .   S
    Zn13   O248      1.93732      .   S
    N182   C114      1.35590      .   S
    N184   C128      1.35356      .   S
    C134   O227      1.24067      .   S
    C134   C131      1.50602      .   S
    C120   O219      1.24014      .   S
    C120   C117      1.50794      .   S
    C131   C130      1.40509      .   S
    C117   C116      1.40481      .   S
    O192   C73       1.29992      .   S
    O248   C171      1.30065      .   S
    C114   H34       1.08804      .   S
    C114   C115      1.38767      .   S
    C128   H40       1.08851      .   S
    C128   C129      1.38881      .   S
    H16    C69       1.08829      .   S
    H59    C167      1.08850      .   S
    C130   C129      1.39886      .   S
    C130   C133      1.50564      .   S
    C116   C115      1.39882      .   S
    C116   C119      1.50332      .   S
    C171   O249      1.24808      .   S
    C171   C168      1.50390      .   S
    C73    O193      1.24848      .   S
    C73    C70       1.50518      .   S
    C115   H35       1.08836      .   S
    C129   H41       1.08856      .   S
    O225   C133      1.24847      .   S
    C69    C70       1.39895      .   S
    C69    C68       1.38879      .   S
    C167   C168      1.39875      .   S
    C167   C166      1.38783      .   S
    O217   C119      1.25028      .   S
    C133   O224      1.30009      .   S
    C119   O216      1.29975      .   S
    C70    C71       1.40483      .   S
    C168   C169      1.40440      .   S
    H15    C68       1.08834      .   S
    H58    C166      1.08821      .   S
    C68    N87       1.35369      .   S
    C166   N190      1.35332      .   S
    O224   Zn7       1.93946      .   S
    O216   Zn5       1.94845      .   S
    C71    C74       1.50620      .   S
    C71    C72       1.39419      .   S
    C169   C172      1.50635      .   S
    C169   C170      1.39410      .   S
    O251   C172      1.24075      .   S
    O195   C74       1.24104      .   S
    C74    O194      1.30043      .   S
    C172   O250      1.30001      .   S
    N87    C72       1.34971      .   S
    N87    Zn0       2.05215      .   S
    N190   C170      1.34953      .   S
    N190   Zn14      2.04588      .   S
    Zn7    O231      2.07172      .   S
    Zn7    O230      2.16999      .   S
    Zn5    O223      2.07438      .   S
    Zn5    O222      2.17196      .   S
    C72    H17       1.09105      .   S
    C170   H60       1.09092      .   S
    O223   C127      1.28215      .   S
    O231   C141      1.28226      .   S
    O194   Zn14      1.97789      .   S
    O250   Zn0       1.97579  1_545   S
    H39    C125      1.09064      .   S
    H45    C139      1.09039      .   S
    Zn0    N183      2.05875      .   S
    Zn0    O244      1.97487      .   S
    Zn14   N185      2.05589      .   S
    Zn14   O204      1.98070      .   S
    C127   O222      1.27697      .   S
    C127   C124      1.70508      .   S
    C141   O230      1.27666      .   S
    C141   C138      1.49237      .   S
    C125   N183      1.34862      .   S
    C125   C124      1.19105  1_655   S
    C139   N185      1.34928      .   S
    C139   C138      1.39634      .   S
    N183   C121      1.35697      .   S
    N185   C135      1.35588      .   S
    C124   C123      1.40796      .   S
    H25    C94       1.08964      .   S
    H56    C160      1.08952      .   S
    C138   C137      1.40864      .   S
    O204   C98       1.29259      .   S
    O244   C164      1.29271      .   S
    O245   C164      1.24106      .   S
    O205   C98       1.24132      .   S
    C164   C161      1.51112      .   S
    C98    C95       1.51214      .   S
    C160   C161      1.40052      .   S
    C160   C159      1.38644      .   S
    C94    C95       1.40086  1_455   S
    C94    C93       1.38686      .   S
    C121   H37       1.08978      .   S
    C121   C122      1.38687      .   S
    C135   H43       1.09007      .   S
    C135   C136      1.38689      .   S
    H55    C159      1.09009      .   S
    H24    C93       1.08991      .   S
    C123   C122      1.20356  1_455   S
    C123   C126      1.70297      .   S
    C137   C136      1.40101      .   S
    C137   C140      1.51279      .   S
    C161   C162      1.40762      .   S
    C95    C96       1.40748      .   S
    C159   N189      1.35567      .   S
    C93    N90       1.35612      .   S
    C122   H38       1.08953      .   S
    C136   H44       1.08979      .   S
    C126   O221      1.24124      .   S
    C126   O220      1.29279      .   S
    C140   O229      1.24141      .   S
    C140   O228      1.29243      .   S
    O220   Zn10      1.97706      .   S
    O228   Zn4       1.97782      .   S
    C162   C163      1.39604      .   S
    C162   C165      1.49215      .   S
    C96    C97       1.39634  1_655   S
    C96    C99       1.49147      .   S
    N189   C163      1.34925      .   S
    N189   Zn10      2.05028      .   S
    N90    C97       1.34912      .   S
    N90    Zn4       2.06003      .   S
    O206   C99       1.27699      .   S
    O206   Zn1       2.17326      .   S
    O246   C165      1.27782      .   S
    O246   Zn11      2.16580      .   S
    C163   H57       1.09046      .   S
    C97    H26       1.09004      .   S
    C165   O247      1.28168      .   S
    C99    O207      1.28215      .   S
    Zn10   O210      1.97607  1_565   S
    Zn10   N186      2.05188      .   S
    Zn4    O234      1.97438      .   S
    Zn4    N180      2.04542      .   S
    H48    C142      1.09099      .   S
    H30    C104      1.09113      .   S
    O210   C106      1.30022      .   S
    O234   C144      1.30030      .   S
    O247   Zn11      2.07489      .   S
    O207   Zn1       2.06832      .   S
    C142   N186      1.34942      .   S
    C142   C67       1.39486      .   S
    C104   N180      1.34953      .   S
    C104   C103      1.39521      .   S
    Zn11   O240      1.94187      .   S
    Zn1    O200      1.94786      .   S
    N186   C64       1.33107      .   S
    N180   C100      1.35326      .   S
    C144   O235      1.24055      .   S
    C144   C67       1.50635      .   S
    C106   O211      1.24018      .   S
    C106   C103      1.50788      .   S
    C67    C66       1.40476      .   S
    C103   C102      1.40522      .   S
    O200   C91       1.29988      .   S
    O240   C157      1.30036      .   S
    C64    H46       1.09294      .   S
    C64    C65       1.40464      .   S
    C100   H28       1.08827      .   S
    C100   C101      1.38761      .   S
    C66    C65       1.39876      .   S
    C102   C101      1.39904      .   S
    C91    O201      1.24992      .   S
    C157   O241      1.24918      .   S
