# CIF file generated by openbabel 2.4.90, see http://openbabel.sf.net
data_I
_chemical_name_common ''
_cell_length_a 14.575
_cell_length_b 14.7
_cell_length_c 26.013
_cell_angle_alpha 90.15
_cell_angle_beta 90.408
_cell_angle_gamma 90.188
_space_group_name_H-M_alt 'P 1'
_space_group_name_Hall 'P 1'
loop_
    _symmetry_equiv_pos_as_xyz
    x,y,z
loop_
    _atom_site_label
    _atom_site_type_symbol
    _atom_site_fract_x
    _atom_site_fract_y
    _atom_site_fract_z
    _atom_site_occupancy
    Zr0     Zr   0.73458   0.55847   0.39300   1.000
    Zr1     Zr   0.73095   0.95272   0.65303   1.000
    Zr2     Zr   0.76530   0.43737   0.89324   1.000
    Zr3     Zr   0.76631   0.04716   0.15302   1.000
    Zr4     Zr   0.26166   0.05806   0.10677   1.000
    Zr5     Zr   0.26940   0.44847   0.84824   1.000
    Zr6     Zr   0.23441   0.93768   0.60688   1.000
    Zr7     Zr   0.23092   0.54735   0.34651   1.000
    Zr8     Zr   0.26307   0.44135   0.60683   1.000
    Zr9     Zr   0.26896   0.04709   0.34710   1.000
    Zr10    Zr   0.23449   0.55873   0.10677   1.000
    Zr11    Zr   0.23378   0.94859   0.84700   1.000
    Zr12    Zr   0.73825   0.93770   0.89321   1.000
    Zr13    Zr   0.72998   0.54696   0.15262   1.000
    Zr14    Zr   0.76562   0.06193   0.39304   1.000
    Zr15    Zr   0.76609   0.45297   0.65340   1.000
    N16     N    0.26268   0.22180   0.95193   1.000
    O17     O    0.26409   0.16742   0.01896   1.000
    O18     O    0.26703   0.31090   0.91414   1.000
    O19     O    0.24253   0.11585   0.90655   1.000
    N20     N    0.49814   0.59507   0.27820   1.000
    O21     O    0.58922   0.57270   0.22823   1.000
    O22     O    0.39460   0.57749   0.30264   1.000
    N23     N    0.75899   0.27361   0.04793   1.000
    O24     O    0.73878   0.37936   0.09337   1.000
    O25     O    0.76337   0.18455   0.08628   1.000
    O26     O    0.76318   0.32824   0.98118   1.000
    N27     N    0.73779   0.77387   0.04835   1.000
    O28     O    0.73287   0.68458   0.08632   1.000
    O29     O    0.73624   0.82886   0.98149   1.000
    O30     O    0.75760   0.87942   0.09409   1.000
    N31     N    0.50009   0.90255   0.77873   1.000
    O32     O    0.39686   0.91958   0.80321   1.000
    O33     O    0.59086   0.92579   0.72875   1.000
    N34     N    0.00096   0.40217   0.77903   1.000
    O35     O    0.10495   0.41917   0.80385   1.000
    O36     O    0.90881   0.42567   0.72898   1.000
    N37     N    0.73741   0.72486   0.54857   1.000
    O38     O    0.73403   0.66846   0.48172   1.000
    O39     O    0.75735   0.61993   0.59437   1.000
    O40     O    0.73315   0.81457   0.58657   1.000
    N41     N    0.99672   0.90207   0.72123   1.000
    O42     O    0.09009   0.92376   0.77130   1.000
    O43     O    0.89401   0.92081   0.69680   1.000
    N44     N    0.00118   0.09620   0.27868   1.000
    O45     O    0.90890   0.07352   0.22868   1.000
    O46     O    0.10493   0.07802   0.30317   1.000
    N47     N    0.24120   0.72210   0.95137   1.000
    O48     O    0.23684   0.66759   0.01844   1.000
    O49     O    0.26121   0.61615   0.90660   1.000
    O50     O    0.23682   0.81114   0.91334   1.000
    N51     N    0.23688   0.77412   0.45175   1.000
    O52     O    0.25812   0.87989   0.40648   1.000
    O53     O    0.23293   0.68498   0.41325   1.000
    O54     O    0.23377   0.82862   0.51868   1.000
    N55     N    0.75967   0.22550   0.54890   1.000
    O56     O    0.76373   0.31499   0.58702   1.000
    O57     O    0.73992   0.12018   0.59446   1.000
    O58     O    0.76445   0.17020   0.48205   1.000
    N59     N    0.49980   0.09331   0.22118   1.000
    O60     O    0.60310   0.07634   0.19672   1.000
    O61     O    0.40906   0.07114   0.27127   1.000
    N62     N    0.26011   0.27535   0.45120   1.000
    O63     O    0.26532   0.18556   0.41330   1.000
    O64     O    0.24011   0.38026   0.40540   1.000
    O65     O    0.26338   0.33172   0.51804   1.000
    N66     N    0.99622   0.59580   0.22035   1.000
    O67     O    0.08899   0.57322   0.27028   1.000
    O68     O    0.89331   0.57777   0.19607   1.000
    N69     N    0.49997   0.40309   0.72174   1.000
    O70     O    0.40921   0.42421   0.77199   1.000
    O71     O    0.60316   0.42159   0.69731   1.000
    O72     O    0.40521   0.42216   0.67559   1.000
    O73     O    0.59263   0.57675   0.32439   1.000
    O74     O    0.09141   0.57771   0.17445   1.000
    O75     O    0.90693   0.41944   0.82511   1.000
    O76     O    0.59519   0.92013   0.82489   1.000
    O77     O    0.09185   0.91983   0.67518   1.000
    O78     O    0.90716   0.07914   0.32481   1.000
    O79     O    0.40470   0.07538   0.17506   1.000
loop_
    _geom_bond_atom_site_label_1
    _geom_bond_atom_site_label_2
    _geom_bond_distance
    _geom_bond_site_symmetry_2
    _ccdc_geom_bond_type
    N16    O17       1.92013  1_556   S
    Zr4    O17       2.79700      .   S
    N16    O18       1.64098      .   S
    Zr5    O18       2.65484      .   S
    N16    O19       1.97161      .   S
    Zr11   O19       2.90460  1_565   S
    N20    O21       1.89343      .   S
    Zr13   O21       2.87740      .   S
    N20    O22       1.66143      .   S
    Zr7    O22       2.68786      .   S
    N23    O24       1.97463      .   S
    Zr13   O24       2.90634      .   S
    N23    O25       1.64911      .   S
    Zr3    O25       2.66692      .   S
    N23    O26       1.91636  1_554   S
    Zr2    O26       2.79768      .   S
    N27    O28       1.64640      .   S
    Zr13   O28       2.66222      .   S
    N27    O29       1.91972  1_554   S
    Zr12   O29       2.80270      .   S
    N27    O30       1.97209      .   S
    Zr3    O30       2.90202  1_545   S
    N31    O32       1.65753      .   S
    Zr11   O32       2.67798      .   S
    N31    O33       1.89232      .   S
    Zr1    O33       2.87432      .   S
    N34    O35       1.66101      .   S
    Zr5    O35       2.68622      .   S
    N34    O36       1.89707  1_455   S
    Zr15   O36       2.88176      .   S
    N37    O38       1.92489      .   S
    Zr0    O38       2.81451      .   S
    N37    O39       1.97252      .   S
    Zr15   O39       2.90116      .   S
    N37    O40       1.64751      .   S
    Zr1    O40       2.66392      .   S
    N41    O42       1.90258  1_655   S
    Zr11   O42       2.88609      .   S
    N41    O43       1.64641      .   S
    Zr1    O43       2.67134      .   S
    N44    O45       1.89253  1_455   S
    Zr3    O45       2.87664      .   S
    N44    O46       1.65944      .   S
    Zr9    O46       2.68313      .   S
    N47    O48       1.92327  1_556   S
    Zr10   O48       2.80390      .   S
    N47    O49       1.96605      .   S
    Zr5    O49       2.89473      .   S
    N47    O50       1.64373      .   S
    Zr11   O50       2.66098      .   S
    N51    O52       1.97778      .   S
    Zr9    O52       2.91079  1_545   S
    N51    O53       1.64769      .   S
    Zr7    O53       2.66251      .   S
    N51    O54       1.91556      .   S
    Zr6    O54       2.79544      .   S
    N55    O56       1.64608      .   S
    Zr15   O56       2.66025      .   S
    N55    O57       1.97370      .   S
    Zr1    O57       2.90161  1_565   S
    N55    O58       1.91944      .   S
    Zr14   O58       2.80638      .   S
    N59    O60       1.65806      .   S
    Zr3    O60       2.67901      .   S
    N59    O61       1.89135      .   S
    Zr9    O61       2.87091      .   S
    N62    O63       1.64762      .   S
    Zr9    O63       2.66380      .   S
    N62    O64       1.97249      .   S
    Zr7    O64       2.90108      .   S
    N62    O65       1.92419      .   S
    Zr8    O65       2.81302      .   S
    N66    O67       1.89880  1_655   S
    Zr7    O67       2.88207      .   S
    N66    O68       1.64377      .   S
    Zr13   O68       2.66484      .   S
    N69    O70       1.89201      .   S
    Zr5    O70       2.87626      .   S
    N69    O71       1.65871      .   S
    Zr15   O71       2.68160      .   S
    Zr8    O72       2.74296      .   S
    N69    O72       1.84621      .   S
    Zr0    O73       2.73695      .   S
    N20    O73       1.84231      .   S
    Zr10   O74       2.75309      .   S
    N66    O74       1.85642  1_655   S
    Zr2    O75       2.74316      .   S
    N34    O75       1.84496  1_455   S
    Zr12   O76       2.74119      .   S
    N31    O76       1.84449      .   S
    Zr6    O77       2.75569      .   S
    N41    O77       1.85715  1_655   S
    Zr14   O78       2.74237      .   S
    N44    O78       1.84492  1_455   S
    Zr4    O79       2.74025      .   S
    N59    O79       1.84434      .   S
