# CIF file generated by openbabel 2.4.90, see http://openbabel.sf.net
data_I
_chemical_name_common ''
_cell_length_a 7.721
_cell_length_b 10.168
_cell_length_c 13.463
_cell_angle_alpha 68.148
_cell_angle_beta 84.677
_cell_angle_gamma 76.446
_space_group_name_H-M_alt 'P 1'
_space_group_name_Hall 'P 1'
loop_
    _symmetry_equiv_pos_as_xyz
    x,y,z
loop_
    _atom_site_label
    _atom_site_type_symbol
    _atom_site_fract_x
    _atom_site_fract_y
    _atom_site_fract_z
    _atom_site_occupancy
    Zr0     Zr   0.35457   0.15924   0.04682   1.000
    Zr1     Zr   0.64542   0.84064   0.95326   1.000
    Zr2     Zr   0.99998   0.49997   0.00004   1.000
    N3      N    0.72801   0.48120   0.59258   1.000
    O4      O    0.61034   0.30686   0.80367   1.000
    N5      N    0.27195   0.51870   0.40748   1.000
    O6      O    0.38962   0.69304   0.19640   1.000
    O7      O    0.18309   0.49629   0.19135   1.000
    O8      O    0.81688   0.50362   0.80870   1.000
    O9      O    0.29955   0.35096   0.23480   1.000
    O10     O    0.70042   0.64894   0.76526   1.000
loop_
    _geom_bond_atom_site_label_1
    _geom_bond_atom_site_label_2
    _geom_bond_distance
    _geom_bond_site_symmetry_2
    _ccdc_geom_bond_type
    N3     O4        2.92751      .   S
    Zr0    O4        3.66070  1_554   S
    N5     O6        2.92742      .   S
    Zr1    O6        3.66064  1_556   S
    Zr2    O7        3.03542  1_655   S
    N5     O7        3.15065      .   S
    Zr2    O8        3.03562  1_554   S
    N3     O8        3.15072      .   S
    N5     O9        3.32393      .   S
    Zr0    O9        3.67029      .   S
    N3     O10       3.32397      .   S
    Zr1    O10       3.67037      .   S
