# CIF file generated by openbabel 2.4.90, see http://openbabel.sf.net
data_I
_chemical_name_common ''
_cell_length_a 7.721
_cell_length_b 10.168
_cell_length_c 13.463
_cell_angle_alpha 68.148
_cell_angle_beta 84.677
_cell_angle_gamma 76.446
_space_group_name_H-M_alt 'P 1'
_space_group_name_Hall 'P 1'
loop_
    _symmetry_equiv_pos_as_xyz
    x,y,z
loop_
    _atom_site_label
    _atom_site_type_symbol
    _atom_site_fract_x
    _atom_site_fract_y
    _atom_site_fract_z
    _atom_site_occupancy
    C0      C    0.35457   0.15924   0.04682   1.000
    C1      C    0.64542   0.84064   0.95326   1.000
    C2      C    0.99998   0.49997   0.00004   1.000
    C3      C    0.27953   0.75619   0.32691   1.000
    C4      C    0.34551   0.63239   0.05204   1.000
    C5      C    0.40093   0.26671   0.52633   1.000
    C6      C    0.31323   0.30971   0.36462   1.000
    C7      C    0.06732   0.65247   0.65639   1.000
    C8      C    0.11210   0.70783   0.46211   1.000
    C9      C    0.34281   0.21068   0.72008   1.000
    C10     C    0.72038   0.24371   0.67316   1.000
    C11     C    0.65439   0.36754   0.94802   1.000
    C12     C    0.59902   0.73318   0.47373   1.000
    C13     C    0.68674   0.69019   0.63544   1.000
    C14     C    0.93264   0.34742   0.34367   1.000
    C15     C    0.88783   0.29205   0.53795   1.000
    C16     C    0.65716   0.78921   0.27998   1.000
    C17     C    0.32193   0.86188   0.11576   1.000
    C18     C    0.31333   0.70911   0.18371   1.000
    C19     C    0.29187   0.67113   0.29449   1.000
    C20     C    0.33056   0.45982   0.20458   1.000
    C21     C    0.34471   0.34614   0.15758   1.000
    C22     C    0.33044   0.60344   0.13825   1.000
    C23     C    0.32449   0.35167   0.55371   1.000
    C24     C    0.31387   0.42234   0.31569   1.000
    C25     C    0.13965   0.56860   0.62694   1.000
    C26     C    0.20199   0.42826   0.70082   1.000
    C27     C    0.29054   0.52792   0.36240   1.000
    C28     C    0.16764   0.59942   0.51802   1.000
    C29     C    0.26184   0.49204   0.47896   1.000
    C30     C    0.29399   0.31973   0.66294   1.000
    C31     C    0.17009   0.39658   0.81788   1.000
    C32     C    0.67804   0.13803   0.88433   1.000
    C33     C    0.68654   0.29081   0.81635   1.000
    C34     C    0.70807   0.32877   0.70557   1.000
    C35     C    0.66933   0.54010   0.79547   1.000
    C36     C    0.65529   0.65379   0.84245   1.000
    C37     C    0.66952   0.39648   0.86181   1.000
    C38     C    0.67547   0.64822   0.44635   1.000
    C39     C    0.68611   0.57756   0.68436   1.000
    C40     C    0.86030   0.43129   0.37312   1.000
    C41     C    0.79799   0.57163   0.29924   1.000
    C42     C    0.70934   0.47198   0.63766   1.000
    C43     C    0.83231   0.40047   0.48204   1.000
    C44     C    0.73810   0.50784   0.52110   1.000
    C45     C    0.70597   0.68016   0.33712   1.000
    C46     C    0.82989   0.60331   0.18218   1.000
    C47     C    0.28034   0.95696   0.15973   1.000
    C48     C    0.36918   0.89412   0.01735   1.000
    C49     C    0.28887   0.38896   0.05856   1.000
    C50     C    0.40819   0.21510   0.20840   1.000
    C51     C    0.08807   0.50662   0.84227   1.000
    C52     C    0.22157   0.26781   0.88302   1.000
    C53     C    0.71962   0.04294   0.84036   1.000
    C54     C    0.63078   0.10579   0.98272   1.000
    C55     C    0.71111   0.61097   0.94148   1.000
    C56     C    0.59183   0.78482   0.79162   1.000
    C57     C    0.91192   0.49328   0.15778   1.000
    C58     C    0.77845   0.73209   0.11704   1.000
    O59     O    0.14442   0.44446   0.02930   1.000
    O60     O    0.95595   0.49662   0.07891   1.000
    O61     O    0.04402   0.50329   0.92116   1.000
    O62     O    0.85554   0.55547   0.97076   1.000
    O63     O    0.34555   0.87800   0.06656   1.000
    O64     O    0.50730   0.86738   0.98531   1.000
    O65     O    0.31745   0.05810   0.10327   1.000
    O66     O    0.38138   0.18717   0.12761   1.000
    O67     O    0.28807   0.21352   0.96492   1.000
    O68     O    0.49267   0.13251   0.01477   1.000
    O69     O    0.33797   0.61791   0.09514   1.000
    O70     O    0.31679   0.36755   0.10807   1.000
    O71     O    0.30113   0.90942   0.13774   1.000
    O72     O    0.31763   0.78549   0.14973   1.000
    O73     O    0.80417   0.66770   0.14961   1.000
    O74     O    0.71193   0.78637   0.03515   1.000
    O75     O    0.32189   0.65627   0.16098   1.000
    O76     O    0.33050   0.53163   0.17141   1.000
    O77     O    0.33764   0.40298   0.18108   1.000
    O78     O    0.37645   0.28062   0.18299   1.000
    O79     O    0.87091   0.54829   0.16998   1.000
    O80     O    0.81394   0.58747   0.24071   1.000
    O81     O    0.30260   0.69012   0.23910   1.000
    O82     O    0.32222   0.44108   0.26014   1.000
    O83     O    0.68157   0.73469   0.30855   1.000
    O84     O    0.28570   0.71366   0.31070   1.000
    O85     O    0.29121   0.59953   0.32845   1.000
    O86     O    0.75198   0.62590   0.31818   1.000
    O87     O    0.82915   0.50146   0.33618   1.000
    O88     O    0.30221   0.47513   0.33905   1.000
    O89     O    0.31355   0.36602   0.34015   1.000
    O90     O    0.69072   0.66419   0.39173   1.000
    O91     O    0.89647   0.38935   0.35840   1.000
    O92     O    0.27619   0.50998   0.42068   1.000
    O93     O    0.84631   0.41588   0.42758   1.000
    O94     O    0.63725   0.69070   0.46004   1.000
    O95     O    0.70679   0.57803   0.48372   1.000
    O96     O    0.13987   0.65362   0.49007   1.000
    O97     O    0.21474   0.54573   0.49849   1.000
    O98     O    0.29317   0.42186   0.51634   1.000
    O99     O    0.78520   0.45416   0.50157   1.000
    O100    O    0.86007   0.34626   0.50999   1.000
    O101    O    0.15365   0.58401   0.57248   1.000
    O102    O    0.72372   0.48991   0.57938   1.000
    O103    O    0.36271   0.30919   0.54002   1.000
    O104    O    0.30924   0.33570   0.60832   1.000
    O105    O    0.10349   0.61053   0.64167   1.000
    O106    O    0.17082   0.49843   0.66388   1.000
    O107    O    0.68643   0.63387   0.65990   1.000
    O108    O    0.69773   0.52477   0.66101   1.000
    O109    O    0.70871   0.40037   0.67162   1.000
    O110    O    0.24799   0.37399   0.68188   1.000
    O111    O    0.31840   0.26520   0.69151   1.000
    O112    O    0.71423   0.28624   0.68937   1.000
    O113    O    0.67772   0.55883   0.73992   1.000
    O114    O    0.18604   0.41242   0.75935   1.000
    O115    O    0.69731   0.30979   0.76096   1.000
    O116    O    0.62356   0.71930   0.81704   1.000
    O117    O    0.61862   0.81273   0.87244   1.000
    O118    O    0.66231   0.59694   0.81896   1.000
    O119    O    0.66943   0.46829   0.82864   1.000
    O120    O    0.67803   0.34364   0.83908   1.000
    O121    O    0.68229   0.21442   0.85034   1.000
    O122    O    0.12908   0.45160   0.83008   1.000
    O123    O    0.19583   0.33219   0.85045   1.000
    O124    O    0.69883   0.09048   0.86234   1.000
    O125    O    0.68252   0.94179   0.89681   1.000
    O126    O    0.68320   0.63238   0.89197   1.000
    O127    O    0.66196   0.38201   0.90492   1.000
    O128    O    0.65441   0.12191   0.93352   1.000
    O129    O    0.32172   0.27410   0.05269   1.000
    O130    O    0.67826   0.72581   0.94737   1.000
loop_
    _geom_bond_atom_site_label_1
    _geom_bond_atom_site_label_2
    _geom_bond_distance
    _geom_bond_site_symmetry_2
    _ccdc_geom_bond_type
    C2     O59       1.15695  1_655   S
    C49    O59       1.15695      .   S
    C2     O60       1.07507      .   S
    C57    O60       1.07507      .   S
    C2     O61       1.07527  1_654   S
    C51    O61       1.07527      .   S
    C2     O62       1.15690  1_554   S
    C55    O62       1.15690      .   S
    C48    O63       0.64005      .   S
    C17    O63       0.64005      .   S
    C48    O64       1.12398  1_554   S
    C1     O64       1.12398      .   S
    C0     O65       1.11051      .   S
    C47    O65       1.11051  1_565   S
    C0     O66       1.26724      .   S
    C50    O66       1.26724      .   S
    C0     O67       1.14159  1_554   S
    C52    O67       1.14159      .   S
    C0     O68       1.12390      .   S
    C54    O68       1.12390  1_556   S
    C4     O69       0.54405      .   S
    C22    O69       0.54405      .   S
    C49    O70       0.65940      .   S
    C21    O70       0.65940      .   S
    C17    O71       0.63905      .   S
    C47    O71       0.63905      .   S
    C17    O72       0.74723      .   S
    C18    O72       0.74723      .   S
    C58    O73       0.63393      .   S
    C46    O73       0.63393      .   S
    C58    O74       1.14153      .   S
    C1     O74       1.14153  1_556   S
    C22    O75       0.69906      .   S
    C18    O75       0.69906      .   S
    C22    O76       0.69975      .   S
    C20    O76       0.69975      .   S
    C21    O77       0.74516      .   S
    C20    O77       0.74516      .   S
    C21    O78       0.62473      .   S
    C50    O78       0.62473      .   S
    C57    O79       0.64491      .   S
    C46    O79       0.64491      .   S
    C46    O80       0.74758      .   S
    C41    O80       0.74758      .   S
    C18    O81       0.69934      .   S
    C19    O81       0.69934      .   S
    C20    O82       0.70042      .   S
    C24    O82       0.70042      .   S
    C16    O83       0.54457      .   S
    C45    O83       0.54457      .   S
    C19    O84       0.54364      .   S
    C3     O84       0.54364      .   S
    C19    O85       0.70188      .   S
    C27    O85       0.70188      .   S
    C41    O86       0.70122      .   S
    C45    O86       0.70122      .   S
    C41    O87       0.70135      .   S
    C40    O87       0.70135      .   S
    C24    O88       0.70203      .   S
    C27    O88       0.70203      .   S
    C24    O89       0.54449      .   S
    C6     O89       0.54449      .   S
    C45    O90       0.69631      .   S
    C38    O90       0.69631      .   S
    C14    O91       0.54403      .   S
    C40    O91       0.54403      .   S
    C27    O92       0.74028      .   S
    C29    O92       0.74028      .   S
    C40    O93       0.69389      .   S
    C43    O93       0.69389      .   S
    C38    O94       0.54503      .   S
    C12    O94       0.54503      .   S
    C38    O95       0.70381      .   S
    C44    O95       0.70381      .   S
    C8     O96       0.54459      .   S
    C28    O96       0.54459      .   S
    C29    O97       0.70386      .   S
    C28    O97       0.70386      .   S
    C29    O98       0.70380      .   S
    C23    O98       0.70380      .   S
    C43    O99       0.70386      .   S
    C44    O99       0.70386      .   S
    C43    O100      0.54460      .   S
    C15    O100      0.54460      .   S
    C28    O101      0.69388      .   S
    C25    O101      0.69388      .   S
    C44    O102      0.74028      .   S
    C42    O102      0.74028      .   S
    C5     O103      0.54503      .   S
    C23    O103      0.54503      .   S
    C23    O104      0.69630      .   S
    C30    O104      0.69630      .   S
    C25    O105      0.54403      .   S
    C7     O105      0.54403      .   S
    C25    O106      0.70135      .   S
    C26    O106      0.70135      .   S
    C13    O107      0.54449      .   S
    C39    O107      0.54449      .   S
    C42    O108      0.70202      .   S
    C39    O108      0.70202      .   S
    C42    O109      0.70189      .   S
    C34    O109      0.70189      .   S
    C30    O110      0.70123      .   S
    C26    O110      0.70123      .   S
    C30    O111      0.54456      .   S
    C9     O111      0.54456      .   S
    C10    O112      0.54364      .   S
    C34    O112      0.54364      .   S
    C39    O113      0.70042      .   S
    C35    O113      0.70042      .   S
    C26    O114      0.74757      .   S
    C31    O114      0.74757      .   S
    C34    O115      0.69935      .   S
    C33    O115      0.69935      .   S
    C56    O116      0.62471      .   S
    C36    O116      0.62471      .   S
    C56    O117      1.26745      .   S
    C1     O117      1.26745      .   S
    C35    O118      0.74517      .   S
    C36    O118      0.74517      .   S
    C35    O119      0.69975      .   S
    C37    O119      0.69975      .   S
    C33    O120      0.69907      .   S
    C37    O120      0.69907      .   S
    C33    O121      0.74724      .   S
    C32    O121      0.74724      .   S
    C31    O122      0.64491      .   S
    C51    O122      0.64491      .   S
    C31    O123      0.63391      .   S
    C52    O123      0.63391      .   S
    C53    O124      0.63905      .   S
    C32    O124      0.63905      .   S
    C53    O125      1.11052  1_545   S
    C1     O125      1.11052      .   S
    C36    O126      0.65941      .   S
    C55    O126      0.65941      .   S
    C37    O127      0.54405      .   S
    C11    O127      0.54405      .   S
    C32    O128      0.64005      .   S
    C54    O128      0.64005      .   S
    C49    O129      1.16649      .   S
    C0     O129      1.16649      .   S
    C55    O130      1.16637      .   S
    C1     O130      1.16637      .   S
