# CIF file generated by openbabel 2.4.90, see http://openbabel.sf.net
data_I
_chemical_name_common ''
_cell_length_a 7.721
_cell_length_b 10.168
_cell_length_c 13.463
_cell_angle_alpha 68.148
_cell_angle_beta 84.677
_cell_angle_gamma 76.446
_space_group_name_H-M_alt 'P 1'
_space_group_name_Hall 'P 1'
loop_
    _symmetry_equiv_pos_as_xyz
    x,y,z
loop_
    _atom_site_label
    _atom_site_type_symbol
    _atom_site_fract_x
    _atom_site_fract_y
    _atom_site_fract_z
    _atom_site_occupancy
    Zr0     Zr   0.35457   0.15924   0.04682   1.000
    Zr1     Zr   0.64542   0.84064   0.95326   1.000
    Zr2     Zr   0.99998   0.49997   0.00004   1.000
    N3      N    0.72801   0.48120   0.59258   1.000
    O4      O    0.79178   0.51833   0.78167   1.000
    O5      O    0.70314   0.60350   0.76997   1.000
    O6      O    0.84198   0.48891   0.83574   1.000
    O7      O    0.61034   0.30686   0.80367   1.000
    O8      O    0.67331   0.64697   0.73251   1.000
    O9      O    0.70526   0.71150   0.74469   1.000
    O10     O    0.71997   0.63378   0.81386   1.000
    N11     N    0.27195   0.51870   0.40748   1.000
    O12     O    0.29470   0.28840   0.25538   1.000
    O13     O    0.15799   0.51100   0.16432   1.000
    O14     O    0.38962   0.69304   0.19640   1.000
    O15     O    0.32666   0.35294   0.26755   1.000
    O16     O    0.20819   0.48158   0.21839   1.000
    O17     O    0.29683   0.39640   0.23009   1.000
    O18     O    0.28001   0.36611   0.18620   1.000
loop_
    _geom_bond_atom_site_label_1
    _geom_bond_atom_site_label_2
    _geom_bond_distance
    _geom_bond_site_symmetry_2
    _ccdc_geom_bond_type
    N3     O4        2.81087      .   S
    Zr2    O4        3.40433  1_554   S
    N3     O5        3.04980      .   S
    Zr1    O5        3.97786      .   S
    N3     O6        3.50083      .   S
    Zr2    O6        2.67270  1_554   S
    N3     O7        2.92751      .   S
    Zr0    O7        3.66070  1_554   S
    N3     O8        2.90706      .   S
    Zr1    O8        4.09838      .   S
    N3     O9        3.60814      .   S
    Zr1    O9        3.47021      .   S
    N3     O10       3.82727      .   S
    Zr1    O10       3.23233      .   S
    N11    O12       3.60806      .   S
    Zr0    O12       3.47018      .   S
    N11    O13       3.50075      .   S
    Zr2    O13       2.67251  1_655   S
    N11    O14       2.92742      .   S
    Zr1    O14       3.66064  1_556   S
    N11    O15       2.90709      .   S
    Zr0    O15       4.09822      .   S
    N11    O16       2.81081      .   S
    Zr2    O16       3.40412  1_655   S
    N11    O17       3.04978      .   S
    Zr0    O17       3.97779      .   S
    N11    O18       3.82721      .   S
    Zr0    O18       3.23228      .   S
