# CIF file generated by openbabel 2.4.90, see http://openbabel.sf.net
data_I
_chemical_name_common ''
_cell_length_a 18.343
_cell_length_b 19.757
_cell_length_c 19.757
_cell_angle_alpha 90
_cell_angle_beta 90
_cell_angle_gamma 89.999
_space_group_name_H-M_alt 'P 1'
_space_group_name_Hall 'P 1'
loop_
    _symmetry_equiv_pos_as_xyz
    x,y,z
loop_
    _atom_site_label
    _atom_site_type_symbol
    _atom_site_fract_x
    _atom_site_fract_y
    _atom_site_fract_z
    _atom_site_occupancy
    Ba0     Ba   0.88344   0.81542   0.64743   1.000
    Ba1     Ba   0.38264   0.68535   0.87615   1.000
    Ba2     Ba   0.88264   0.68535   0.87615   1.000
    Ba3     Ba   0.38345   0.18460   0.35257   1.000
    Ba4     Ba   0.88344   0.18460   0.35250   1.000
    Ba5     Ba   0.38264   0.31467   0.12386   1.000
    Ba6     Ba   0.88264   0.31467   0.12386   1.000
    Ba7     Ba   0.38345   0.35258   0.81542   1.000
    Ba8     Ba   0.88344   0.35258   0.81542   1.000
    Ba9     Ba   0.38265   0.12386   0.68535   1.000
    Ba10    Ba   0.88264   0.12386   0.68535   1.000
    Ba11    Ba   0.38344   0.64744   0.18460   1.000
    Ba12    Ba   0.88344   0.64744   0.18400   1.000
    Ba13    Ba   0.38264   0.87616   0.31466   1.000
    Ba14    Ba   0.88263   0.87616   0.31466   1.000
    Ba15    Ba   0.13345   0.31541   0.85259   1.000
    Ba16    Ba   0.63345   0.31541   0.85250   1.000
    Ba17    Ba   0.13265   0.18534   0.62387   1.000
    Ba18    Ba   0.63264   0.18534   0.62387   1.000
    Ba19    Ba   0.13345   0.68461   0.14743   1.000
    Ba20    Ba   0.63344   0.68461   0.14743   1.000
    Ba21    Ba   0.13264   0.81468   0.37614   1.000
    Ba22    Ba   0.63264   0.81468   0.37614   1.000
    Ba23    Ba   0.13345   0.85259   0.68460   1.000
    Ba24    Ba   0.63344   0.85259   0.68460   1.000
    Ba25    Ba   0.13264   0.62387   0.81467   1.000
    Ba26    Ba   0.63264   0.62387   0.81467   1.000
    Ba27    Ba   0.13345   0.14743   0.31540   1.000
    Ba28    Ba   0.63344   0.14743   0.31541   1.000
    Ba29    Ba   0.13265   0.37615   0.18534   1.000
    Ba30    Ba   0.63264   0.37615   0.18534   1.000
    Ba31    Ba   0.38345   0.81542   0.64744   1.000
    C32     C    0.46536   0.17535   0.20303   1.000
    C33     C    0.96535   0.17535   0.20303   1.000
    C34     C    0.30223   0.70289   0.03949   1.000
    C35     C    0.80222   0.70290   0.03900   1.000
    C36     C    0.22143   0.79041   0.85050   1.000
    C37     C    0.72143   0.79041   0.85058   1.000
    C38     C    0.46535   0.82467   0.79698   1.000
    C39     C    0.96535   0.82467   0.79698   1.000
    C40     C    0.05392   0.70937   0.96704   1.000
    C41     C    0.55391   0.70937   0.96704   1.000
    C42     C    0.30224   0.29713   0.96052   1.000
    C43     C    0.80223   0.29713   0.96052   1.000
    C44     C    0.22143   0.20961   0.14944   1.000
    C45     C    0.72143   0.20961   0.14944   1.000
    O46     O    0.11193   0.48311   0.82014   1.000
    O47     O    0.61193   0.48310   0.82013   1.000
    O48     O    0.02215   0.40555   0.81690   1.000
    O49     O    0.52214   0.40555   0.81690   1.000
    O50     O    0.48452   0.65227   0.77308   1.000
    O51     O    0.98451   0.65226   0.77308   1.000
    O52     O    0.42733   0.68652   0.67742   1.000
    O53     O    0.92733   0.68652   0.67742   1.000
    O54     O    0.15013   0.70289   0.69728   1.000
    O55     O    0.65012   0.70289   0.69729   1.000
    C56     C    0.05392   0.29065   0.03297   1.000
    C57     C    0.55391   0.29065   0.03297   1.000
    C58     C    0.30223   0.96052   0.70289   1.000
    C59     C    0.80223   0.96052   0.70289   1.000
    C60     C    0.22144   0.14944   0.79041   1.000
    C61     C    0.72143   0.14944   0.79040   1.000
    C62     C    0.46536   0.20303   0.82467   1.000
    C63     C    0.96535   0.20304   0.82466   1.000
    C64     C    0.05392   0.03298   0.70930   1.000
    C65     C    0.55392   0.03298   0.70930   1.000
    C66     C    0.30224   0.03950   0.29712   1.000
    C67     C    0.80223   0.03950   0.29712   1.000
    C68     C    0.22143   0.85058   0.20961   1.000
    C69     C    0.72142   0.85058   0.20961   1.000
    C70     C    0.46535   0.79699   0.17530   1.000
    C71     C    0.96534   0.79699   0.17534   1.000
    C72     C    0.05391   0.96705   0.29065   1.000
    C73     C    0.55391   0.96704   0.29060   1.000
    C74     C    0.05224   0.20288   0.46051   1.000
    C75     C    0.55223   0.20288   0.46051   1.000
    C76     C    0.47143   0.29040   0.64945   1.000
    C77     C    0.97143   0.29040   0.64945   1.000
    C78     C    0.21536   0.32466   0.70304   1.000
    C79     C    0.71535   0.32466   0.70304   1.000
    C80     C    0.30392   0.20936   0.53298   1.000
    C81     C    0.80391   0.20936   0.53298   1.000
    C82     C    0.05224   0.79713   0.53951   1.000
    C83     C    0.55223   0.79714   0.53950   1.000
    C84     C    0.47143   0.70962   0.35057   1.000
    C85     C    0.97142   0.70962   0.35056   1.000
    C86     C    0.21536   0.67537   0.29697   1.000
    C87     C    0.71535   0.67536   0.29697   1.000
    C88     C    0.30391   0.79066   0.46703   1.000
    C89     C    0.80391   0.79066   0.46703   1.000
    C90     C    0.05224   0.46051   0.79713   1.000
    C91     C    0.55223   0.46051   0.79713   1.000
    C92     C    0.47143   0.64945   0.70962   1.000
    C93     C    0.97142   0.64945   0.70962   1.000
    C94     C    0.21536   0.70305   0.67536   1.000
    C95     C    0.71535   0.70305   0.67536   1.000
    C96     C    0.30392   0.53299   0.79060   1.000
    C97     C    0.80391   0.53299   0.79066   1.000
    C98     C    0.05224   0.53951   0.20288   1.000
    C99     C    0.55223   0.53951   0.20288   1.000
    C100    C    0.47143   0.35057   0.29000   1.000
    C101    C    0.97142   0.35057   0.29000   1.000
    C102    C    0.21536   0.29698   0.32466   1.000
    C103    C    0.71535   0.29698   0.32465   1.000
    C104    C    0.30391   0.46704   0.20930   1.000
    C105    C    0.80391   0.46704   0.20930   1.000
    O106    O    0.36193   0.67989   0.01690   1.000
    O107    O    0.86192   0.67989   0.01690   1.000
    O108    O    0.27214   0.68313   0.09446   1.000
    O109    O    0.77213   0.68313   0.09446   1.000
    O110    O    0.23452   0.72694   0.84776   1.000
    O111    O    0.73451   0.72694   0.84776   1.000
    O112    O    0.17734   0.82261   0.81350   1.000
    O113    O    0.67733   0.82261   0.81350   1.000
    O114    O    0.40013   0.80274   0.79714   1.000
    O115    O    0.90012   0.80274   0.79714   1.000
    O116    O    0.49652   0.84949   0.74489   1.000
    O117    O    0.99651   0.84949   0.74489   1.000
    O118    O    0.10008   0.69185   0.01113   1.000
    O119    O    0.60007   0.69185   0.01113   1.000
    O120    O    0.03484   0.67457   0.91542   1.000
    O121    O    0.53483   0.67457   0.91542   1.000
    O122    O    0.36194   0.32012   0.98311   1.000
    O123    O    0.86193   0.32013   0.98311   1.000
    O124    O    0.27215   0.31689   0.90555   1.000
    O125    O    0.77214   0.31690   0.90550   1.000
    O126    O    0.23452   0.27308   0.15225   1.000
    O127    O    0.73451   0.27308   0.15225   1.000
    O128    O    0.17734   0.17741   0.18651   1.000
    O129    O    0.67733   0.17741   0.18651   1.000
    O130    O    0.40013   0.19728   0.20287   1.000
    O131    O    0.90012   0.19728   0.20287   1.000
    O132    O    0.49652   0.15053   0.25512   1.000
    O133    O    0.99651   0.15052   0.25510   1.000
    O134    O    0.10009   0.30817   0.98888   1.000
    O135    O    0.60008   0.30817   0.98888   1.000
    O136    O    0.03484   0.32545   0.08459   1.000
    O137    O    0.53483   0.32545   0.08459   1.000
    O138    O    0.36194   0.98311   0.67989   1.000
    O139    O    0.86192   0.98312   0.67989   1.000
    O140    O    0.27214   0.90556   0.68313   1.000
    O141    O    0.77213   0.90556   0.68312   1.000
    O142    O    0.23452   0.15226   0.72694   1.000
    O143    O    0.73452   0.15225   0.72694   1.000
    O144    O    0.17734   0.18651   0.82260   1.000
    O145    O    0.67734   0.18651   0.82260   1.000
    O146    O    0.40014   0.20288   0.80273   1.000
    O147    O    0.90012   0.20288   0.80274   1.000
    O148    O    0.49652   0.25512   0.84948   1.000
    O149    O    0.99651   0.25512   0.84900   1.000
    O150    O    0.10008   0.98889   0.69185   1.000
    O151    O    0.60007   0.98888   0.69185   1.000
    O152    O    0.03484   0.08460   0.67457   1.000
    O153    O    0.53483   0.08459   0.67457   1.000
    O154    O    0.36194   0.01691   0.32012   1.000
    O155    O    0.86193   0.01691   0.32012   1.000
    O156    O    0.27214   0.09446   0.31689   1.000
    O157    O    0.77214   0.09446   0.31689   1.000
    O158    O    0.23451   0.84777   0.27307   1.000
    O159    O    0.73451   0.84777   0.27307   1.000
    O160    O    0.17733   0.81351   0.17741   1.000
    O161    O    0.67733   0.81351   0.17741   1.000
    O162    O    0.40013   0.79714   0.19728   1.000
    O163    O    0.90012   0.79714   0.19728   1.000
    O164    O    0.49651   0.74490   0.15052   1.000
    O165    O    0.99651   0.74490   0.15052   1.000
    O166    O    0.10009   0.01114   0.30816   1.000
    O167    O    0.60008   0.01114   0.30816   1.000
    O168    O    0.03483   0.91543   0.32544   1.000
    O169    O    0.53482   0.91543   0.32544   1.000
    O170    O    0.11194   0.17988   0.48310   1.000
    O171    O    0.61194   0.17989   0.48310   1.000
    O172    O    0.02215   0.18312   0.40550   1.000
    O173    O    0.52214   0.18312   0.40554   1.000
    O174    O    0.48452   0.22693   0.65226   1.000
    O175    O    0.98451   0.22693   0.65226   1.000
    O176    O    0.42734   0.32260   0.68652   1.000
    O177    O    0.92733   0.32260   0.68652   1.000
    O178    O    0.15014   0.30273   0.70280   1.000
    O179    O    0.65013   0.30273   0.70288   1.000
    O180    O    0.24652   0.34948   0.75513   1.000
    O181    O    0.74652   0.34949   0.75513   1.000
    O182    O    0.35009   0.19184   0.48887   1.000
    O183    O    0.85008   0.19184   0.48887   1.000
    O184    O    0.28484   0.17457   0.58460   1.000
    O185    O    0.78483   0.17456   0.58460   1.000
    O186    O    0.11193   0.82014   0.51691   1.000
    O187    O    0.61193   0.82013   0.51691   1.000
    O188    O    0.02214   0.81691   0.59440   1.000
    O189    O    0.52214   0.81690   0.59447   1.000
    O190    O    0.48451   0.77309   0.34775   1.000
    O191    O    0.98451   0.77309   0.34775   1.000
    O192    O    0.42733   0.67742   0.31349   1.000
    O193    O    0.92733   0.67742   0.31349   1.000
    O194    O    0.15013   0.69729   0.29713   1.000
    O195    O    0.65013   0.69730   0.29713   1.000
    O196    O    0.24652   0.65053   0.24489   1.000
    O197    O    0.74651   0.65054   0.24488   1.000
    O198    O    0.35008   0.80818   0.51114   1.000
    O199    O    0.85007   0.80818   0.51114   1.000
    O200    O    0.28483   0.82546   0.41541   1.000
    O201    O    0.78482   0.82546   0.41541   1.000
    O202    O    0.24652   0.75513   0.65052   1.000
    O203    O    0.74651   0.75513   0.65053   1.000
    O204    O    0.35008   0.48888   0.80817   1.000
    O205    O    0.85008   0.48887   0.80817   1.000
    O206    O    0.28484   0.58461   0.82545   1.000
    O207    O    0.78483   0.58460   0.82545   1.000
    O208    O    0.11194   0.51692   0.17988   1.000
    O209    O    0.61193   0.51692   0.17988   1.000
    O210    O    0.02214   0.59447   0.18311   1.000
    O211    O    0.52214   0.59447   0.18311   1.000
    O212    O    0.48452   0.34776   0.22693   1.000
    O213    O    0.98451   0.34776   0.22693   1.000
    O214    O    0.42734   0.31350   0.32259   1.000
    O215    O    0.92733   0.31350   0.32259   1.000
    O216    O    0.15014   0.29713   0.30272   1.000
    O217    O    0.65013   0.29713   0.30272   1.000
    O218    O    0.24652   0.24489   0.34948   1.000
    O219    O    0.74652   0.24489   0.34948   1.000
    O220    O    0.35008   0.51115   0.19184   1.000
    O221    O    0.85007   0.51115   0.19184   1.000
    O222    O    0.28483   0.41542   0.17456   1.000
    O223    O    0.78483   0.41542   0.17456   1.000
    Og224   Og   0.48064   0.17650   0.18147   1.000
    Og225   Og   0.98064   0.17650   0.18145   1.000
    Og226   Og   0.28866   0.72130   0.02633   1.000
    Og227   Og   0.78865   0.72130   0.02600   1.000
    Og228   Og   0.23515   0.80457   0.86807   1.000
    Og229   Og   0.73514   0.80457   0.86812   1.000
    Og230   Og   0.48064   0.82352   0.81854   1.000
    Og231   Og   0.98064   0.82352   0.81854   1.000
    Og232   Og   0.04215   0.73269   0.97043   1.000
    Og233   Og   0.54215   0.73269   0.97043   1.000
    Og234   Og   0.28866   0.27872   0.97355   1.000
    Og235   Og   0.78866   0.27872   0.97355   1.000
    Og236   Og   0.23515   0.19545   0.13187   1.000
    Og237   Og   0.73515   0.19545   0.13187   1.000
    Og238   Og   0.04215   0.26733   0.02958   1.000
    Og239   Og   0.54214   0.26734   0.02958   1.000
    Og240   Og   0.28866   0.97355   0.72130   1.000
    Og241   Og   0.78865   0.97355   0.72130   1.000
    Og242   Og   0.23516   0.13187   0.80457   1.000
    Og243   Og   0.73515   0.13187   0.80457   1.000
    Og244   Og   0.48064   0.18147   0.82352   1.000
    Og245   Og   0.98064   0.18147   0.82351   1.000
    Og246   Og   0.04216   0.02959   0.73264   1.000
    Og247   Og   0.54215   0.02959   0.73264   1.000
    Og248   Og   0.28866   0.02633   0.27871   1.000
    Og249   Og   0.78865   0.02633   0.27871   1.000
    Og250   Og   0.23515   0.86815   0.19544   1.000
    Og251   Og   0.73514   0.86815   0.19544   1.000
    Og252   Og   0.48064   0.81855   0.17646   1.000
    Og253   Og   0.98063   0.81855   0.17649   1.000
    Og254   Og   0.04215   0.97043   0.26733   1.000
    Og255   Og   0.54214   0.97043   0.26730   1.000
    Og256   Og   0.03867   0.22129   0.47355   1.000
    Og257   Og   0.53866   0.22129   0.47355   1.000
    Og258   Og   0.48515   0.30456   0.63188   1.000
    Og259   Og   0.98515   0.30456   0.63188   1.000
    Og260   Og   0.23064   0.32351   0.68148   1.000
    Og261   Og   0.73064   0.32351   0.68146   1.000
    Og262   Og   0.29215   0.23267   0.52959   1.000
    Og263   Og   0.79214   0.23268   0.52959   1.000
    Og264   Og   0.03866   0.77873   0.52647   1.000
    Og265   Og   0.53865   0.77873   0.52646   1.000
    Og266   Og   0.48515   0.69546   0.36814   1.000
    Og267   Og   0.98514   0.69546   0.36813   1.000
    Og268   Og   0.23064   0.67652   0.31851   1.000
    Og269   Og   0.73063   0.67651   0.31853   1.000
    Og270   Og   0.29214   0.76734   0.47042   1.000
    Og271   Og   0.79214   0.76735   0.47042   1.000
    Og272   Og   0.03867   0.47355   0.77872   1.000
    Og273   Og   0.53866   0.47355   0.77872   1.000
    Og274   Og   0.48515   0.63188   0.69546   1.000
    Og275   Og   0.98514   0.63188   0.69546   1.000
    Og276   Og   0.23064   0.68148   0.67651   1.000
    Og277   Og   0.73064   0.68148   0.67651   1.000
    Og278   Og   0.29215   0.52960   0.76730   1.000
    Og279   Og   0.79214   0.52960   0.76734   1.000
    Og280   Og   0.03866   0.52647   0.22129   1.000
    Og281   Og   0.53865   0.52647   0.22129   1.000
    Og282   Og   0.48515   0.36814   0.30430   1.000
    Og283   Og   0.98515   0.36814   0.30430   1.000
    Og284   Og   0.23064   0.31854   0.32351   1.000
    Og285   Og   0.73064   0.31854   0.32350   1.000
    Og286   Og   0.29215   0.47042   0.23263   1.000
    Og287   Og   0.79214   0.47042   0.23263   1.000
loop_
    _geom_bond_atom_site_label_1
    _geom_bond_atom_site_label_2
    _geom_bond_distance
    _geom_bond_site_symmetry_2
    _ccdc_geom_bond_type
    O119   C41       1.26312  1_554   S
    O118   C40       1.26312  1_554   S
    O106   C34       1.26685      .   S
    O106   Ba1       2.80870  1_554   S
    O107   C35       1.26346      .   S
    O107   Ba2       2.80870  1_554   S
    C57    O137      1.27876      .   S
    C57    O135      1.26325  1_554   S
    C56    O136      1.27875      .   S
    C56    O134      1.26326  1_554   S
    C35    O109      1.28760      .   S
    C34    O108      1.27934      .   S
    O108   Ba19      2.75104      .   S
    O109   Ba20      2.75101      .   S
    Ba5    O130      2.81393      .   S
    Ba5    O122      2.80867  1_554   S
    Ba6    O131      2.81397      .   S
    Ba6    O123      2.80868  1_554   S
    Ba20   O161      2.73580      .   S
    Ba19   O160      2.73583      .   S
    C45    O127      1.27791      .   S
    C45    O129      1.26305      .   S
    C44    O126      1.27791      .   S
    C44    O128      1.26304      .   S
    O164   C70       1.27492      .   S
    O165   C71       1.27525      .   S
    O223   C105      1.27813      .   S
    O222   C104      1.27813      .   S
    C70    O162      1.27280      .   S
    C71    O163      1.27249      .   S
    O160   C68       1.26307      .   S
    O161   C69       1.26306      .   S
    O209   Ba30      2.80911      .   S
    O209   C99       1.26689      .   S
    O208   Ba29      2.80909      .   S
    O208   C98       1.26687      .   S
    O211   Ba11      2.75101      .   S
    O211   C99       1.27925      .   S
    O210   Ba12      2.75112  1_455   S
    O210   C98       1.27925      .   S
    Ba12   O193      2.74665      .   S
    Ba11   O192      2.73563      .   S
    Ba29   O216      2.81391      .   S
    Ba30   O217      2.81390      .   S
    O128   Ba27      2.73561      .   S
    O129   Ba28      2.73579      .   S
    O220   C104      1.26320      .   S
    O221   C105      1.26319      .   S
    O162   Ba13      2.81390      .   S
    O163   Ba14      2.81390      .   S
    O131   C33       1.27248      .   S
    O130   C32       1.27247      .   S
    C33    O133      1.27501      .   S
    C32    O132      1.27532      .   S
    C68    O158      1.27776      .   S
    C69    O159      1.27775      .   S
    O213   C101      1.27019      .   S
    O212   C100      1.27020      .   S
    O197   C87       1.27529      .   S
    O196   C86       1.27523      .   S
    C101   O215      1.26696      .   S
    C100   O214      1.26696      .   S
    C73    O167      1.26357  1_565   S
    C73    O169      1.27917      .   S
    C72    O166      1.26328  1_565   S
    C72    O168      1.27868      .   S
    C87    O195      1.27248      .   S
    C86    O194      1.27248      .   S
    C66    O156      1.27926      .   S
    C66    O154      1.26690      .   S
    C67    O157      1.27923      .   S
    C67    O155      1.26684      .   S
    O195   Ba22      2.81389      .   S
    O194   Ba21      2.81404      .   S
    O216   C102      1.27251      .   S
    O217   C103      1.27248      .   S
    O192   C84       1.26315      .   S
    O193   C85       1.26303      .   S
    Ba13   O154      2.80870  1_565   S
    Ba14   O155      2.80867  1_565   S
    Ba27   O156      2.75101      .   S
    Ba28   O157      2.75102      .   S
    O214   Ba3       2.73580      .   S
    O215   Ba4       2.73552      .   S
    C103   O219      1.27530      .   S
    C102   O218      1.27524      .   S
    O190   C84       1.27792      .   S
    O191   C85       1.27791      .   S
    Ba4    O172      2.75149  1_655   S
    Ba3    O173      2.75101      .   S
    Ba22   O187      2.80908      .   S
    Ba21   O186      2.80910      .   S
    O172   C74       1.28002      .   S
    O173   C75       1.27935      .   S
    O200   C88       1.27872      .   S
    O201   C89       1.27878      .   S
    C75    O171      1.26685      .   S
    C74    O170      1.26685      .   S
    C88    O198      1.26350      .   S
    C89    O199      1.26344      .   S
    O170   Ba17      2.80908      .   S
    O171   Ba18      2.80908      .   S
    O183   C81       1.26345      .   S
    O182   C80       1.26347      .   S
    O187   C83       1.26686      .   S
    O186   C82       1.26683      .   S
    C81    O185      1.27876      .   S
    C80    O184      1.27873      .   S
    C83    O189      1.27932      .   S
    C82    O188      1.27811      .   S
    O188   Ba0       2.75168  1_455   S
    O189   Ba31      2.75101      .   S
    Ba17   O178      2.81305      .   S
    Ba18   O179      2.81395      .   S
    Ba0    O53       2.73581      .   S
    Ba31   O52       2.73573      .   S
    C77    O175      1.27790      .   S
    C77    O177      1.26306      .   S
    C76    O174      1.27791      .   S
    C76    O176      1.26305      .   S
    O202   C94       1.27528      .   S
    O203   C95       1.27528      .   S
    O152   C64       1.27802      .   S
    O153   C65       1.27801      .   S
    C95    O55       1.27250      .   S
    C94    O54       1.27248      .   S
    O53    C93       1.26306      .   S
    O52    C92       1.26307      .   S
    O138   Ba9       2.80881  1_565   S
    O138   C58       1.26690      .   S
    O139   Ba10      2.80866  1_565   S
    O139   C59       1.26683      .   S
    O141   Ba24      2.75103      .   S
    O141   C59       1.27921      .   S
    O140   Ba23      2.75106      .   S
    O140   C58       1.27922      .   S
    Ba23   O112      2.73580      .   S
    Ba24   O113      2.73580      .   S
    Ba10   O147      2.81408      .   S
    Ba9    O146      2.81391      .   S
    O176   Ba7       2.73578      .   S
    O177   Ba8       2.73580      .   S
    O151   C65       1.26273  1_565   S
    O150   C64       1.26276  1_565   S
    O54    Ba25      2.81406      .   S
    O55    Ba26      2.81390      .   S
    O178   C78       1.27248      .   S
    O179   C79       1.27249      .   S
    C78    O180      1.27532      .   S
    C79    O181      1.27532      .   S
    C93    O51       1.27777      .   S
    C92    O50       1.27776      .   S
    O142   C60       1.27794      .   S
    O143   C61       1.27776      .   S
    O117   C39       1.27529      .   S
    O116   C38       1.27528      .   S
    C61    O145      1.26306      .   S
    C60    O144      1.26298      .   S
    C96    O204      1.26378      .   S
    C96    O206      1.27930      .   S
    C97    O205      1.26345      .   S
    C97    O207      1.27864      .   S
    C39    O115      1.27248      .   S
    C38    O114      1.27250      .   S
    C91    O49       1.27924      .   S
    C91    O47       1.26684      .   S
    C90    O48       1.27918      .   S
    C90    O46       1.26685      .   S
    O114   Ba1       2.81388      .   S
    O115   Ba2       2.81393      .   S
    O146   C62       1.27248      .   S
    O147   C63       1.27246      .   S
    O113   C37       1.26315      .   S
    O112   C36       1.26224      .   S
    Ba25   O46       2.80901      .   S
    Ba26   O47       2.80909      .   S
    Ba7    O49       2.75101      .   S
    Ba8    O48       2.75127  1_655   S
    O144   Ba15      2.73583      .   S
    O145   Ba16      2.73543      .   S
    C63    O149      1.27155      .   S
    C62    O148      1.27521      .   S
    O111   C37       1.27792      .   S
    O110   C36       1.27786      .   S
    Ba16   O125      2.75125      .   S
    Ba15   O124      2.75099      .   S
    O125   C43       1.28020      .   S
    O124   C42       1.27931      .   S
    O120   C40       1.27876      .   S
    O121   C41       1.27876      .   S
    C42    O122      1.26686      .   S
    C43    O123      1.26684      .   S
    O108   Ba11      2.79948      .   S
    O109   Ba12      2.79195      .   S
    O110   Ba1       2.89349      .   S
    O110   Ba25      2.84008      .   S
    O111   Ba2       2.89344      .   S
    O111   Ba26      2.84006      .   S
    O114   Ba31      2.98396      .   S
    O115   Ba0       2.98416      .   S
    O116   Ba31      2.90891      .   S
    O116   Ba24      2.78042      .   S
    O117   Ba0       2.90909      .   S
    O117   Ba23      2.78061  1_655   S
    O118   Ba19      2.76526      .   S
    O119   Ba20      2.76526      .   S
    O120   Ba2       2.90545  1_455   S
    O120   Ba25      2.86079      .   S
    O121   Ba1       2.90519      .   S
    O121   Ba26      2.86082      .   S
    O124   Ba7       2.79937      .   S
    O125   Ba8       2.79870      .   S
    O126   Ba5       2.89348      .   S
    O126   Ba29      2.84001      .   S
    O127   Ba6       2.89346      .   S
    O127   Ba30      2.84001      .   S
    O130   Ba3       2.98395      .   S
    O131   Ba4       2.98258      .   S
    O132   Ba3       2.90890      .   S
    O132   Ba28      2.78041      .   S
    O133   Ba4       2.90826      .   S
    O133   Ba27      2.78074  1_655   S
    O134   Ba15      2.76506      .   S
    O135   Ba16      2.76679      .   S
    O136   Ba6       2.90544  1_455   S
    O136   Ba29      2.86085      .   S
    O137   Ba5       2.90520      .   S
    O137   Ba30      2.86086      .   S
    O140   Ba31      2.79945      .   S
    O141   Ba0       2.79945      .   S
    O142   Ba9       2.89354      .   S
    O142   Ba17      2.84003      .   S
    O143   Ba10      2.89342      .   S
    O143   Ba18      2.84007      .   S
    O146   Ba7       2.98397      .   S
    O147   Ba8       2.98398      .   S
    O148   Ba7       2.90894      .   S
    O148   Ba16      2.78037      .   S
    O149   Ba8       2.90682      .   S
    O149   Ba15      2.78090  1_655   S
    O150   Ba23      2.76515      .   S
    O151   Ba24      2.76512      .   S
    O152   Ba10      2.90549  1_455   S
    O152   Ba17      2.86079      .   S
    O153   Ba9       2.90513      .   S
    O153   Ba18      2.86085      .   S
    O156   Ba3       2.79942      .   S
    O157   Ba4       2.79906      .   S
    O158   Ba13      2.89348      .   S
    O158   Ba21      2.84010      .   S
    O159   Ba14      2.89348      .   S
    O159   Ba22      2.84004      .   S
    O162   Ba11      2.98399      .   S
    O163   Ba12      2.98497      .   S
    O164   Ba11      2.90908      .   S
    O164   Ba20      2.78043      .   S
    O165   Ba12      2.90634      .   S
    O165   Ba19      2.78061  1_655   S
    O166   Ba27      2.76516      .   S
    O167   Ba28      2.76515      .   S
    O168   Ba14      2.90545  1_455   S
    O168   Ba21      2.86076      .   S
    O169   Ba13      2.90520      .   S
    O169   Ba22      2.86084      .   S
    O172   Ba27      2.79896      .   S
    O173   Ba28      2.79933      .   S
    O174   Ba9       2.84001      .   S
    O174   Ba18      2.89345      .   S
    O175   Ba10      2.84007      .   S
    O175   Ba17      2.89370  1_655   S
    O178   Ba15      2.98572      .   S
    O179   Ba16      2.98238      .   S
    O180   Ba7       2.78046      .   S
    O180   Ba15      2.90906      .   S
    O181   Ba8       2.78041      .   S
    O181   Ba16      2.90786      .   S
    O182   Ba3       2.76525      .   S
    O183   Ba4       2.76660      .   S
    O184   Ba9       2.86086      .   S
    O184   Ba17      2.90521      .   S
    O185   Ba10      2.86080      .   S
    O185   Ba18      2.90523      .   S
    O188   Ba23      2.80024      .   S
    O189   Ba24      2.79936      .   S
    O190   Ba13      2.84002      .   S
    O190   Ba22      2.89348      .   S
    O191   Ba14      2.84004      .   S
    O191   Ba21      2.89358  1_655   S
    O194   Ba19      2.98394      .   S
    O195   Ba20      2.98396      .   S
    O196   Ba11      2.78046      .   S
    O196   Ba19      2.90907      .   S
    O197   Ba12      2.78543      .   S
    O197   Ba20      2.90892      .   S
    O198   Ba31      2.76527      .   S
    O199   Ba0       2.76507      .   S
    O200   Ba13      2.86082      .   S
    O200   Ba21      2.90532      .   S
    O201   Ba14      2.86085      .   S
    O201   Ba22      2.90516      .   S
    O48    Ba15      2.79950      .   S
    O49    Ba16      2.79902      .   S
    O50    Ba1       2.84003      .   S
    O50    Ba26      2.89347      .   S
    O51    Ba2       2.84007      .   S
    O51    Ba25      2.89362  1_655   S
    O54    Ba23      2.98398      .   S
    O55    Ba24      2.98398      .   S
    O202   Ba31      2.78052      .   S
    O202   Ba23      2.90905      .   S
    O203   Ba0       2.78043      .   S
    O203   Ba24      2.90900      .   S
    O204   Ba7       2.76517      .   S
    O205   Ba8       2.76512      .   S
    O206   Ba1       2.86081      .   S
    O206   Ba25      2.90526      .   S
    O207   Ba2       2.86081      .   S
    O207   Ba26      2.90520      .   S
    O210   Ba19      2.79940      .   S
    O211   Ba20      2.79942      .   S
    O212   Ba5       2.84007      .   S
    O212   Ba30      2.89347      .   S
    O213   Ba6       2.84006      .   S
    O213   Ba29      2.89371  1_655   S
    O216   Ba27      2.98396      .   S
    O217   Ba28      2.98399      .   S
    O218   Ba3       2.78042      .   S
    O218   Ba27      2.90907      .   S
    O219   Ba4       2.78039      .   S
    O219   Ba28      2.90904      .   S
    O220   Ba11      2.76512      .   S
    O221   Ba12      2.76578      .   S
    O222   Ba5       2.86080      .   S
    O222   Ba29      2.90523      .   S
    O223   Ba6       2.86080      .   S
    O223   Ba30      2.90521      .   S
    C32    Og224     0.51050      .   S
    C33    Og225     0.51076      .   S
    C34    Og226     0.51175      .   S
    C35    Og227     0.51011      .   S
    C36    Og228     0.51193      .   S
    C37    Og229     0.51158      .   S
    C38    Og230     0.51050      .   S
    C39    Og231     0.51054      .   S
    C40    Og232     0.51309      .   S
    C41    Og233     0.51309      .   S
    C42    Og234     0.51045      .   S
    C43    Og235     0.51044      .   S
    C44    Og236     0.51198      .   S
    C45    Og237     0.51198      .   S
    C56    Og238     0.51310      .   S
    C57    Og239     0.51308      .   S
    C58    Og240     0.51039      .   S
    C59    Og241     0.51039      .   S
    C60    Og242     0.51197      .   S
    C61    Og243     0.51201      .   S
    C62    Og244     0.51048      .   S
    C63    Og245     0.51052      .   S
    C64    Og246     0.51347      .   S
    C65    Og247     0.51347      .   S
    C66    Og248     0.51182      .   S
    C67    Og249     0.51182      .   S
    C68    Og250     0.51205      .   S
    C69    Og251     0.51201      .   S
    C70    Og252     0.51049      .   S
    C71    Og253     0.51053      .   S
    C72    Og254     0.51312      .   S
    C73    Og255     0.51282      .   S
    C74    Og256     0.51049      .   S
    C75    Og257     0.51049      .   S
    C76    Og258     0.51198      .   S
    C77    Og259     0.51202      .   S
    C78    Og260     0.51050      .   S
    C79    Og261     0.51077      .   S
    C80    Og262     0.51311      .   S
    C81    Og263     0.51309      .   S
    C82    Og264     0.51049      .   S
    C83    Og265     0.51050      .   S
    C84    Og266     0.51194      .   S
    C85    Og267     0.51202      .   S
    C86    Og268     0.51017      .   S
    C87    Og269     0.51050      .   S
    C88    Og270     0.51310      .   S
    C89    Og271     0.51308      .   S
    C90    Og272     0.51049      .   S
    C91    Og273     0.51049      .   S
    C92    Og274     0.51197      .   S
    C93    Og275     0.51201      .   S
    C94    Og276     0.51047      .   S
    C95    Og277     0.51047      .   S
    C96    Og278     0.51276      .   S
    C97    Og279     0.51312      .   S
    C98    Og280     0.51049      .   S
    C99    Og281     0.51049      .   S
    C100   Og282     0.51341      .   S
    C101   Og283     0.51346      .   S
    C102   Og284     0.51047      .   S
    C103   Og285     0.51047      .   S
    C104   Og286     0.51341      .   S
    C105   Og287     0.51341      .   S
