# CIF file generated by openbabel 2.4.90, see http://openbabel.sf.net
data_I
_chemical_name_common ''
_cell_length_a 18.343
_cell_length_b 19.757
_cell_length_c 19.757
_cell_angle_alpha 90
_cell_angle_beta 90
_cell_angle_gamma 89.999
_space_group_name_H-M_alt 'P 1'
_space_group_name_Hall 'P 1'
loop_
    _symmetry_equiv_pos_as_xyz
    x,y,z
loop_
    _atom_site_label
    _atom_site_type_symbol
    _atom_site_fract_x
    _atom_site_fract_y
    _atom_site_fract_z
    _atom_site_occupancy
    C0      C    0.46536   0.17535   0.20303   1.000
    C1      C    0.96535   0.17535   0.20303   1.000
    C2      C    0.30223   0.70289   0.03949   1.000
    C3      C    0.80222   0.70290   0.03900   1.000
    C4      C    0.22143   0.79041   0.85050   1.000
    C5      C    0.72143   0.79041   0.85058   1.000
    C6      C    0.46535   0.82467   0.79698   1.000
    C7      C    0.96535   0.82467   0.79698   1.000
    C8      C    0.05392   0.70937   0.96704   1.000
    C9      C    0.55391   0.70937   0.96704   1.000
    C10     C    0.30224   0.29713   0.96052   1.000
    C11     C    0.80223   0.29713   0.96052   1.000
    C12     C    0.22143   0.20961   0.14944   1.000
    C13     C    0.72143   0.20961   0.14944   1.000
    C14     C    0.05392   0.29065   0.03297   1.000
    C15     C    0.55391   0.29065   0.03297   1.000
    C16     C    0.30223   0.96052   0.70289   1.000
    C17     C    0.80223   0.96052   0.70289   1.000
    C18     C    0.22144   0.14944   0.79041   1.000
    C19     C    0.72143   0.14944   0.79040   1.000
    C20     C    0.46536   0.20303   0.82467   1.000
    C21     C    0.96535   0.20304   0.82466   1.000
    C22     C    0.05392   0.03298   0.70930   1.000
    C23     C    0.55392   0.03298   0.70930   1.000
    C24     C    0.30224   0.03950   0.29712   1.000
    C25     C    0.80223   0.03950   0.29712   1.000
    C26     C    0.22143   0.85058   0.20961   1.000
    C27     C    0.72142   0.85058   0.20961   1.000
    C28     C    0.46535   0.79699   0.17530   1.000
    C29     C    0.96534   0.79699   0.17534   1.000
    C30     C    0.05391   0.96705   0.29065   1.000
    C31     C    0.55391   0.96704   0.29060   1.000
    C32     C    0.05224   0.20288   0.46051   1.000
    C33     C    0.55223   0.20288   0.46051   1.000
    C34     C    0.47143   0.29040   0.64945   1.000
    C35     C    0.97143   0.29040   0.64945   1.000
    C36     C    0.21536   0.32466   0.70304   1.000
    C37     C    0.71535   0.32466   0.70304   1.000
    C38     C    0.30392   0.20936   0.53298   1.000
    C39     C    0.80391   0.20936   0.53298   1.000
    C40     C    0.05224   0.79713   0.53951   1.000
    C41     C    0.55223   0.79714   0.53950   1.000
    C42     C    0.47143   0.70962   0.35057   1.000
    C43     C    0.97142   0.70962   0.35056   1.000
    C44     C    0.21536   0.67537   0.29697   1.000
    C45     C    0.71535   0.67536   0.29697   1.000
    C46     C    0.30391   0.79066   0.46703   1.000
    C47     C    0.80391   0.79066   0.46703   1.000
    C48     C    0.05224   0.46051   0.79713   1.000
    C49     C    0.55223   0.46051   0.79713   1.000
    C50     C    0.47143   0.64945   0.70962   1.000
    C51     C    0.97142   0.64945   0.70962   1.000
    C52     C    0.21536   0.70305   0.67536   1.000
    C53     C    0.71535   0.70305   0.67536   1.000
    C54     C    0.30392   0.53299   0.79060   1.000
    C55     C    0.80391   0.53299   0.79066   1.000
    C56     C    0.05224   0.53951   0.20288   1.000
    C57     C    0.55223   0.53951   0.20288   1.000
    C58     C    0.47143   0.35057   0.29000   1.000
    C59     C    0.97142   0.35057   0.29000   1.000
    C60     C    0.21536   0.29698   0.32466   1.000
    C61     C    0.71535   0.29698   0.32465   1.000
    C62     C    0.30391   0.46704   0.20930   1.000
    C63     C    0.80391   0.46704   0.20930   1.000
