# CIF file generated by openbabel 2.4.90, see http://openbabel.sf.net
data_I
_chemical_name_common ''
_cell_length_a 18.343
_cell_length_b 19.757
_cell_length_c 19.757
_cell_angle_alpha 90
_cell_angle_beta 90
_cell_angle_gamma 89.999
_space_group_name_H-M_alt 'P 1'
_space_group_name_Hall 'P 1'
loop_
    _symmetry_equiv_pos_as_xyz
    x,y,z
loop_
    _atom_site_label
    _atom_site_type_symbol
    _atom_site_fract_x
    _atom_site_fract_y
    _atom_site_fract_z
    _atom_site_occupancy
    Zr0     Zr   0.38345   0.81542   0.64744   1.000
    Zr1     Zr   0.88344   0.81542   0.64743   1.000
    Zr2     Zr   0.38264   0.68535   0.87615   1.000
    Zr3     Zr   0.88264   0.68535   0.87615   1.000
    Zr4     Zr   0.38345   0.18460   0.35257   1.000
    Zr5     Zr   0.88344   0.18460   0.35250   1.000
    Zr6     Zr   0.38264   0.31467   0.12386   1.000
    Zr7     Zr   0.88264   0.31467   0.12386   1.000
    Zr8     Zr   0.38345   0.35258   0.81542   1.000
    Zr9     Zr   0.88344   0.35258   0.81542   1.000
    Zr10    Zr   0.38265   0.12386   0.68535   1.000
    Zr11    Zr   0.88264   0.12386   0.68535   1.000
    Zr12    Zr   0.38344   0.64744   0.18460   1.000
    Zr13    Zr   0.88344   0.64744   0.18400   1.000
    Zr14    Zr   0.38264   0.87616   0.31466   1.000
    Zr15    Zr   0.88263   0.87616   0.31466   1.000
    Zr16    Zr   0.13345   0.31541   0.85259   1.000
    Zr17    Zr   0.63345   0.31541   0.85250   1.000
    Zr18    Zr   0.13265   0.18534   0.62387   1.000
    Zr19    Zr   0.63264   0.18534   0.62387   1.000
    Zr20    Zr   0.13345   0.68461   0.14743   1.000
    Zr21    Zr   0.63344   0.68461   0.14743   1.000
    Zr22    Zr   0.13264   0.81468   0.37614   1.000
    Zr23    Zr   0.63264   0.81468   0.37614   1.000
    Zr24    Zr   0.13345   0.85259   0.68460   1.000
    Zr25    Zr   0.63344   0.85259   0.68460   1.000
    Zr26    Zr   0.13264   0.62387   0.81467   1.000
    Zr27    Zr   0.63264   0.62387   0.81467   1.000
    Zr28    Zr   0.13345   0.14743   0.31540   1.000
    Zr29    Zr   0.63344   0.14743   0.31541   1.000
    Zr30    Zr   0.13265   0.37615   0.18534   1.000
    Zr31    Zr   0.63264   0.37615   0.18534   1.000
    Zr32    Zr   0.30223   0.70289   0.03949   1.000
    Zr33    Zr   0.80222   0.70290   0.03900   1.000
    Zr34    Zr   0.22143   0.79041   0.85050   1.000
    Zr35    Zr   0.72143   0.79041   0.85058   1.000
    Zr36    Zr   0.46535   0.82467   0.79698   1.000
    Zr37    Zr   0.96535   0.82467   0.79698   1.000
    Zr38    Zr   0.05392   0.70937   0.96704   1.000
    Zr39    Zr   0.55391   0.70937   0.96704   1.000
    Zr40    Zr   0.30224   0.29713   0.96052   1.000
    Zr41    Zr   0.80223   0.29713   0.96052   1.000
    Zr42    Zr   0.22143   0.20961   0.14944   1.000
    Zr43    Zr   0.72143   0.20961   0.14944   1.000
    Zr44    Zr   0.46536   0.17535   0.20303   1.000
    Zr45    Zr   0.96535   0.17535   0.20303   1.000
    Zr46    Zr   0.05392   0.29065   0.03297   1.000
    Zr47    Zr   0.55391   0.29065   0.03297   1.000
    Zr48    Zr   0.30223   0.96052   0.70289   1.000
    Zr49    Zr   0.80223   0.96052   0.70289   1.000
    Zr50    Zr   0.22144   0.14944   0.79041   1.000
    Zr51    Zr   0.72143   0.14944   0.79040   1.000
    Zr52    Zr   0.46536   0.20303   0.82467   1.000
    Zr53    Zr   0.96535   0.20304   0.82466   1.000
    Zr54    Zr   0.05392   0.03298   0.70930   1.000
    Zr55    Zr   0.55392   0.03298   0.70930   1.000
    Zr56    Zr   0.30224   0.03950   0.29712   1.000
    Zr57    Zr   0.80223   0.03950   0.29712   1.000
    Zr58    Zr   0.22143   0.85058   0.20961   1.000
    Zr59    Zr   0.72142   0.85058   0.20961   1.000
    Zr60    Zr   0.46535   0.79699   0.17530   1.000
    Zr61    Zr   0.96534   0.79699   0.17534   1.000
    Zr62    Zr   0.05391   0.96705   0.29065   1.000
    Zr63    Zr   0.55391   0.96704   0.29060   1.000
    Zr64    Zr   0.05224   0.20288   0.46051   1.000
    Zr65    Zr   0.55223   0.20288   0.46051   1.000
    Zr66    Zr   0.47143   0.29040   0.64945   1.000
    Zr67    Zr   0.97143   0.29040   0.64945   1.000
    Zr68    Zr   0.21536   0.32466   0.70304   1.000
    Zr69    Zr   0.71535   0.32466   0.70304   1.000
    Zr70    Zr   0.30392   0.20936   0.53298   1.000
    Zr71    Zr   0.80391   0.20936   0.53298   1.000
    Zr72    Zr   0.05224   0.79713   0.53951   1.000
    Zr73    Zr   0.55223   0.79714   0.53950   1.000
    Zr74    Zr   0.47143   0.70962   0.35057   1.000
    Zr75    Zr   0.97142   0.70962   0.35056   1.000
    Zr76    Zr   0.21536   0.67537   0.29697   1.000
    Zr77    Zr   0.71535   0.67536   0.29697   1.000
    Zr78    Zr   0.30391   0.79066   0.46703   1.000
    Zr79    Zr   0.80391   0.79066   0.46703   1.000
    Zr80    Zr   0.05224   0.46051   0.79713   1.000
    Zr81    Zr   0.55223   0.46051   0.79713   1.000
    Zr82    Zr   0.47143   0.64945   0.70962   1.000
    Zr83    Zr   0.97142   0.64945   0.70962   1.000
    Zr84    Zr   0.21536   0.70305   0.67536   1.000
    Zr85    Zr   0.71535   0.70305   0.67536   1.000
    Zr86    Zr   0.30392   0.53299   0.79060   1.000
    Zr87    Zr   0.80391   0.53299   0.79066   1.000
    Zr88    Zr   0.05224   0.53951   0.20288   1.000
    Zr89    Zr   0.55223   0.53951   0.20288   1.000
    Zr90    Zr   0.47143   0.35057   0.29000   1.000
    Zr91    Zr   0.97142   0.35057   0.29000   1.000
    Zr92    Zr   0.21536   0.29698   0.32466   1.000
    Zr93    Zr   0.71535   0.29698   0.32465   1.000
    Zr94    Zr   0.30391   0.46704   0.20930   1.000
    Zr95    Zr   0.80391   0.46704   0.20930   1.000
    Zr96    Zr   0.36193   0.67989   0.01690   1.000
    Zr97    Zr   0.86192   0.67989   0.01690   1.000
    Zr98    Zr   0.27214   0.68313   0.09446   1.000
    Zr99    Zr   0.77213   0.68313   0.09446   1.000
    Zr100   Zr   0.23452   0.72694   0.84776   1.000
    Zr101   Zr   0.73451   0.72694   0.84776   1.000
    Zr102   Zr   0.17734   0.82261   0.81350   1.000
    Zr103   Zr   0.67733   0.82261   0.81350   1.000
    Zr104   Zr   0.40013   0.80274   0.79714   1.000
    Zr105   Zr   0.90012   0.80274   0.79714   1.000
    Zr106   Zr   0.49652   0.84949   0.74489   1.000
    Zr107   Zr   0.99651   0.84949   0.74489   1.000
    Zr108   Zr   0.10008   0.69185   0.01113   1.000
    Zr109   Zr   0.60007   0.69185   0.01113   1.000
    Zr110   Zr   0.03484   0.67457   0.91542   1.000
    Zr111   Zr   0.53483   0.67457   0.91542   1.000
    Zr112   Zr   0.36194   0.32012   0.98311   1.000
    Zr113   Zr   0.86193   0.32013   0.98311   1.000
    Zr114   Zr   0.27215   0.31689   0.90555   1.000
    Zr115   Zr   0.77214   0.31690   0.90550   1.000
    Zr116   Zr   0.23452   0.27308   0.15225   1.000
    Zr117   Zr   0.73451   0.27308   0.15225   1.000
    Zr118   Zr   0.17734   0.17741   0.18651   1.000
    Zr119   Zr   0.67733   0.17741   0.18651   1.000
    Zr120   Zr   0.40013   0.19728   0.20287   1.000
    Zr121   Zr   0.90012   0.19728   0.20287   1.000
    Zr122   Zr   0.49652   0.15053   0.25512   1.000
    Zr123   Zr   0.99651   0.15052   0.25510   1.000
    Zr124   Zr   0.10009   0.30817   0.98888   1.000
    Zr125   Zr   0.60008   0.30817   0.98888   1.000
    Zr126   Zr   0.03484   0.32545   0.08459   1.000
    Zr127   Zr   0.53483   0.32545   0.08459   1.000
    Zr128   Zr   0.36194   0.98311   0.67989   1.000
    Zr129   Zr   0.86192   0.98312   0.67989   1.000
    Zr130   Zr   0.27214   0.90556   0.68313   1.000
    Zr131   Zr   0.77213   0.90556   0.68312   1.000
    Zr132   Zr   0.23452   0.15226   0.72694   1.000
    Zr133   Zr   0.73452   0.15225   0.72694   1.000
    Zr134   Zr   0.17734   0.18651   0.82260   1.000
    Zr135   Zr   0.67734   0.18651   0.82260   1.000
    Zr136   Zr   0.40014   0.20288   0.80273   1.000
    Zr137   Zr   0.90012   0.20288   0.80274   1.000
    Zr138   Zr   0.49652   0.25512   0.84948   1.000
    Zr139   Zr   0.99651   0.25512   0.84900   1.000
    Zr140   Zr   0.10008   0.98889   0.69185   1.000
    Zr141   Zr   0.60007   0.98888   0.69185   1.000
    Zr142   Zr   0.03484   0.08460   0.67457   1.000
    Zr143   Zr   0.53483   0.08459   0.67457   1.000
    Zr144   Zr   0.36194   0.01691   0.32012   1.000
    Zr145   Zr   0.86193   0.01691   0.32012   1.000
    Zr146   Zr   0.27214   0.09446   0.31689   1.000
    Zr147   Zr   0.77214   0.09446   0.31689   1.000
    Zr148   Zr   0.23451   0.84777   0.27307   1.000
    Zr149   Zr   0.73451   0.84777   0.27307   1.000
    Zr150   Zr   0.17733   0.81351   0.17741   1.000
    Zr151   Zr   0.67733   0.81351   0.17741   1.000
    Zr152   Zr   0.40013   0.79714   0.19728   1.000
    Zr153   Zr   0.90012   0.79714   0.19728   1.000
    Zr154   Zr   0.49651   0.74490   0.15052   1.000
    Zr155   Zr   0.99651   0.74490   0.15052   1.000
    Zr156   Zr   0.10009   0.01114   0.30816   1.000
    Zr157   Zr   0.60008   0.01114   0.30816   1.000
    Zr158   Zr   0.03483   0.91543   0.32544   1.000
    Zr159   Zr   0.53482   0.91543   0.32544   1.000
    Zr160   Zr   0.11194   0.17988   0.48310   1.000
    Zr161   Zr   0.61194   0.17989   0.48310   1.000
    Zr162   Zr   0.02215   0.18312   0.40550   1.000
    Zr163   Zr   0.52214   0.18312   0.40554   1.000
    Zr164   Zr   0.48452   0.22693   0.65226   1.000
    Zr165   Zr   0.98451   0.22693   0.65226   1.000
    Zr166   Zr   0.42734   0.32260   0.68652   1.000
    Zr167   Zr   0.92733   0.32260   0.68652   1.000
    Zr168   Zr   0.15014   0.30273   0.70280   1.000
    Zr169   Zr   0.65013   0.30273   0.70288   1.000
    Zr170   Zr   0.24652   0.34948   0.75513   1.000
    Zr171   Zr   0.74652   0.34949   0.75513   1.000
    Zr172   Zr   0.35009   0.19184   0.48887   1.000
    Zr173   Zr   0.85008   0.19184   0.48887   1.000
    Zr174   Zr   0.28484   0.17457   0.58460   1.000
    Zr175   Zr   0.78483   0.17456   0.58460   1.000
    Zr176   Zr   0.11193   0.82014   0.51691   1.000
    Zr177   Zr   0.61193   0.82013   0.51691   1.000
    Zr178   Zr   0.02214   0.81691   0.59440   1.000
    Zr179   Zr   0.52214   0.81690   0.59447   1.000
    Zr180   Zr   0.48451   0.77309   0.34775   1.000
    Zr181   Zr   0.98451   0.77309   0.34775   1.000
    Zr182   Zr   0.42733   0.67742   0.31349   1.000
    Zr183   Zr   0.92733   0.67742   0.31349   1.000
    Zr184   Zr   0.15013   0.69729   0.29713   1.000
    Zr185   Zr   0.65013   0.69730   0.29713   1.000
    Zr186   Zr   0.24652   0.65053   0.24489   1.000
    Zr187   Zr   0.74651   0.65054   0.24488   1.000
    Zr188   Zr   0.35008   0.80818   0.51114   1.000
    Zr189   Zr   0.85007   0.80818   0.51114   1.000
    Zr190   Zr   0.28483   0.82546   0.41541   1.000
    Zr191   Zr   0.78482   0.82546   0.41541   1.000
    Zr192   Zr   0.11193   0.48311   0.82014   1.000
    Zr193   Zr   0.61193   0.48310   0.82013   1.000
    Zr194   Zr   0.02215   0.40555   0.81690   1.000
    Zr195   Zr   0.52214   0.40555   0.81690   1.000
    Zr196   Zr   0.48452   0.65227   0.77308   1.000
    Zr197   Zr   0.98451   0.65226   0.77308   1.000
    Zr198   Zr   0.42733   0.68652   0.67742   1.000
    Zr199   Zr   0.92733   0.68652   0.67742   1.000
    Zr200   Zr   0.15013   0.70289   0.69728   1.000
    Zr201   Zr   0.65012   0.70289   0.69729   1.000
    Zr202   Zr   0.24652   0.75513   0.65052   1.000
    Zr203   Zr   0.74651   0.75513   0.65053   1.000
    Zr204   Zr   0.35008   0.48888   0.80817   1.000
    Zr205   Zr   0.85008   0.48887   0.80817   1.000
    Zr206   Zr   0.28484   0.58461   0.82545   1.000
    Zr207   Zr   0.78483   0.58460   0.82545   1.000
    Zr208   Zr   0.11194   0.51692   0.17988   1.000
    Zr209   Zr   0.61193   0.51692   0.17988   1.000
    Zr210   Zr   0.02214   0.59447   0.18311   1.000
    Zr211   Zr   0.52214   0.59447   0.18311   1.000
    Zr212   Zr   0.48452   0.34776   0.22693   1.000
    Zr213   Zr   0.98451   0.34776   0.22693   1.000
    Zr214   Zr   0.42734   0.31350   0.32259   1.000
    Zr215   Zr   0.92733   0.31350   0.32259   1.000
    Zr216   Zr   0.15014   0.29713   0.30272   1.000
    Zr217   Zr   0.65013   0.29713   0.30272   1.000
    Zr218   Zr   0.24652   0.24489   0.34948   1.000
    Zr219   Zr   0.74652   0.24489   0.34948   1.000
    Zr220   Zr   0.35008   0.51115   0.19184   1.000
    Zr221   Zr   0.85007   0.51115   0.19184   1.000
    Zr222   Zr   0.28483   0.41542   0.17456   1.000
    Zr223   Zr   0.78483   0.41542   0.17456   1.000
    O224    O    0.57699   0.70061   0.98909   1.000
    O225    O    0.07700   0.70061   0.98909   1.000
    O226    O    0.33208   0.69139   0.02820   1.000
    O227    O    0.37229   0.68262   0.94652   1.000
    O228    O    0.83207   0.69139   0.02795   1.000
    O229    O    0.87228   0.68262   0.94652   1.000
    O230    O    0.54437   0.30805   0.05878   1.000
    O231    O    0.57700   0.29941   0.01092   1.000
    O232    O    0.04438   0.30805   0.05878   1.000
    O233    O    0.07700   0.29941   0.01092   1.000
    O234    O    0.78718   0.69301   0.06673   1.000
    O235    O    0.28718   0.69301   0.06698   1.000
    O236    O    0.20279   0.68387   0.12095   1.000
    O237    O    0.70279   0.68387   0.12095   1.000
    O238    O    0.39139   0.25598   0.16337   1.000
    O239    O    0.37229   0.31740   0.05349   1.000
    O240    O    0.89138   0.25597   0.16337   1.000
    O241    O    0.87228   0.31740   0.05349   1.000
    O242    O    0.65538   0.74906   0.16242   1.000
    O243    O    0.15539   0.74906   0.16242   1.000
    O244    O    0.72797   0.24135   0.15084   1.000
    O245    O    0.69938   0.19351   0.16797   1.000
    O246    O    0.22798   0.24135   0.15084   1.000
    O247    O    0.19939   0.19351   0.16797   1.000
    O248    O    0.48093   0.77094   0.16291   1.000
    O249    O    0.98093   0.77094   0.16293   1.000
    O250    O    0.79437   0.44123   0.19193   1.000
    O251    O    0.29437   0.44123   0.19193   1.000
    O252    O    0.43274   0.79706   0.18629   1.000
    O253    O    0.93273   0.79706   0.18631   1.000
    O254    O    0.19938   0.83205   0.19351   1.000
    O255    O    0.69938   0.83204   0.19351   1.000
    O256    O    0.62229   0.44653   0.18261   1.000
    O257    O    0.58208   0.52821   0.19138   1.000
    O258    O    0.12229   0.44653   0.18261   1.000
    O259    O    0.08209   0.52821   0.19138   1.000
    O260    O    0.45279   0.62096   0.18385   1.000
    O261    O    0.53718   0.56699   0.19300   1.000
    O262    O    0.95279   0.62096   0.18355   1.000
    O263    O    0.03719   0.56699   0.19300   1.000
    O264    O    0.90538   0.66243   0.24874   1.000
    O265    O    0.40539   0.66243   0.24904   1.000
    O266    O    0.14139   0.33664   0.24403   1.000
    O267    O    0.64138   0.33664   0.24403   1.000
    O268    O    0.15540   0.16242   0.25096   1.000
    O269    O    0.65539   0.16242   0.25096   1.000
    O270    O    0.32700   0.48909   0.20057   1.000
    O271    O    0.82699   0.48909   0.20057   1.000
    O272    O    0.39138   0.83665   0.25597   1.000
    O273    O    0.89138   0.83665   0.25597   1.000
    O274    O    0.93274   0.18632   0.20295   1.000
    O275    O    0.43274   0.18632   0.20295   1.000
    O276    O    0.98093   0.16294   0.22906   1.000
    O277    O    0.48094   0.16294   0.22908   1.000
    O278    O    0.22797   0.84917   0.24134   1.000
    O279    O    0.72797   0.84917   0.24134   1.000
    O280    O    0.97797   0.34916   0.25847   1.000
    O281    O    0.47797   0.34916   0.25847   1.000
    O282    O    0.73093   0.66295   0.27093   1.000
    O283    O    0.23094   0.66295   0.27093   1.000
    O284    O    0.94938   0.33203   0.30630   1.000
    O285    O    0.44938   0.33204   0.30630   1.000
    O286    O    0.57699   0.98909   0.29938   1.000
    O287    O    0.54437   0.94124   0.30802   1.000
    O288    O    0.07700   0.98909   0.29941   1.000
    O289    O    0.04437   0.94124   0.30805   1.000
    O290    O    0.68274   0.68633   0.29705   1.000
    O291    O    0.18274   0.68633   0.29705   1.000
    O292    O    0.28719   0.06698   0.30701   1.000
    O293    O    0.33209   0.02820   0.30862   1.000
    O294    O    0.78718   0.06698   0.30701   1.000
    O295    O    0.83208   0.02820   0.30862   1.000
    O296    O    0.64138   0.75599   0.33664   1.000
    O297    O    0.14138   0.75598   0.33664   1.000
    O298    O    0.18275   0.29705   0.31369   1.000
    O299    O    0.68274   0.29705   0.31368   1.000
    O300    O    0.44938   0.69352   0.33203   1.000
    O301    O    0.94937   0.69352   0.33203   1.000
    O302    O    0.37229   0.94653   0.31739   1.000
    O303    O    0.87228   0.94653   0.31739   1.000
    O304    O    0.20280   0.12095   0.31615   1.000
    O305    O    0.70279   0.12095   0.31615   1.000
    O306    O    0.40539   0.24905   0.33758   1.000
    O307    O    0.90539   0.24905   0.33755   1.000
    O308    O    0.73094   0.27093   0.33707   1.000
    O309    O    0.23094   0.27093   0.33707   1.000
    O310    O    0.47797   0.74136   0.34916   1.000
    O311    O    0.97796   0.74136   0.34915   1.000
    O312    O    0.95279   0.18386   0.37900   1.000
    O313    O    0.45279   0.18386   0.37906   1.000
    O314    O    0.62228   0.81741   0.44653   1.000
    O315    O    0.12228   0.81741   0.44653   1.000
    O316    O    0.03719   0.19300   0.43301   1.000
    O317    O    0.53719   0.19300   0.43302   1.000
    O318    O    0.29437   0.80806   0.44122   1.000
    O319    O    0.79436   0.80806   0.44122   1.000
    O320    O    0.58209   0.19138   0.47180   1.000
    O321    O    0.08209   0.19138   0.47180   1.000
    O322    O    0.32699   0.79942   0.48909   1.000
    O323    O    0.82699   0.79942   0.48909   1.000
    O324    O    0.12230   0.18261   0.55349   1.000
    O325    O    0.62229   0.18261   0.55349   1.000
    O326    O    0.82699   0.20060   0.51093   1.000
    O327    O    0.32700   0.20060   0.51093   1.000
    O328    O    0.58208   0.80864   0.52820   1.000
    O329    O    0.08208   0.80864   0.52821   1.000
    O330    O    0.79437   0.19196   0.55879   1.000
    O331    O    0.29438   0.19196   0.55879   1.000
    O332    O    0.53718   0.80702   0.56699   1.000
    O333    O    0.03719   0.80702   0.56695   1.000
    O334    O    0.95279   0.81617   0.62091   1.000
    O335    O    0.45279   0.81616   0.62096   1.000
    O336    O    0.14139   0.24404   0.66334   1.000
    O337    O    0.64139   0.24404   0.66338   1.000
    O338    O    0.90538   0.75097   0.66243   1.000
    O339    O    0.40539   0.75097   0.66243   1.000
    O340    O    0.97797   0.25867   0.65086   1.000
    O341    O    0.94938   0.30650   0.66799   1.000
    O342    O    0.47798   0.25867   0.65086   1.000
    O343    O    0.44938   0.30650   0.66799   1.000
    O344    O    0.23094   0.72909   0.66294   1.000
    O345    O    0.73093   0.72909   0.66295   1.000
    O346    O    0.04438   0.05879   0.69194   1.000
    O347    O    0.54438   0.05879   0.69194   1.000
    O348    O    0.68274   0.70297   0.68632   1.000
    O349    O    0.18274   0.70297   0.68632   1.000
    O350    O    0.94937   0.66799   0.69352   1.000
    O351    O    0.44938   0.66799   0.69352   1.000
    O352    O    0.37229   0.05349   0.68262   1.000
    O353    O    0.33208   0.97182   0.69139   1.000
    O354    O    0.87228   0.05349   0.68262   1.000
    O355    O    0.83207   0.97182   0.69139   1.000
    O356    O    0.70279   0.87908   0.68386   1.000
    O357    O    0.78718   0.93304   0.69300   1.000
    O358    O    0.20279   0.87907   0.68387   1.000
    O359    O    0.28719   0.93304   0.69301   1.000
    O360    O    0.15539   0.83760   0.74905   1.000
    O361    O    0.65539   0.83760   0.74905   1.000
    O362    O    0.89138   0.16337   0.74405   1.000
    O363    O    0.39139   0.16337   0.74404   1.000
    O364    O    0.40539   0.33759   0.75097   1.000
    O365    O    0.90538   0.33759   0.75097   1.000
    O366    O    0.57700   0.01093   0.70057   1.000
    O367    O    0.07700   0.01093   0.70057   1.000
    O368    O    0.14139   0.66338   0.75598   1.000
    O369    O    0.64138   0.66338   0.75598   1.000
    O370    O    0.18275   0.31369   0.70292   1.000
    O371    O    0.68274   0.31369   0.70296   1.000
    O372    O    0.23094   0.33707   0.72909   1.000
    O373    O    0.73094   0.33707   0.72909   1.000
    O374    O    0.97797   0.65086   0.74135   1.000
    O375    O    0.47797   0.65086   0.74135   1.000
    O376    O    0.22798   0.15085   0.75867   1.000
    O377    O    0.72797   0.15085   0.75867   1.000
    O378    O    0.98093   0.83708   0.77094   1.000
    O379    O    0.48094   0.83708   0.77094   1.000
    O380    O    0.69938   0.16798   0.80650   1.000
    O381    O    0.19939   0.16798   0.80651   1.000
    O382    O    0.32700   0.51093   0.79939   1.000
    O383    O    0.29438   0.55880   0.80802   1.000
    O384    O    0.82699   0.51093   0.79942   1.000
    O385    O    0.79437   0.55880   0.80805   1.000
    O386    O    0.93274   0.81370   0.79706   1.000
    O387    O    0.43274   0.81370   0.79706   1.000
    O388    O    0.53719   0.43303   0.80702   1.000
    O389    O    0.58208   0.47181   0.80863   1.000
    O390    O    0.03719   0.43303   0.80702   1.000
    O391    O    0.08209   0.47181   0.80863   1.000
    O392    O    0.39139   0.74404   0.83665   1.000
    O393    O    0.89138   0.74404   0.83665   1.000
    O394    O    0.43275   0.20296   0.81370   1.000
    O395    O    0.93274   0.20296   0.81370   1.000
    O396    O    0.69938   0.80651   0.83204   1.000
    O397    O    0.19939   0.80651   0.83200   1.000
    O398    O    0.12229   0.55349   0.81740   1.000
    O399    O    0.62229   0.55349   0.81740   1.000
    O400    O    0.45280   0.37907   0.81616   1.000
    O401    O    0.95279   0.37907   0.81616   1.000
    O402    O    0.15540   0.25096   0.83760   1.000
    O403    O    0.65539   0.25096   0.83755   1.000
    O404    O    0.98093   0.22908   0.83683   1.000
    O405    O    0.48094   0.22908   0.83708   1.000
    O406    O    0.72797   0.75868   0.84917   1.000
    O407    O    0.22798   0.75868   0.84913   1.000
    O408    O    0.70279   0.31615   0.87900   1.000
    O409    O    0.20280   0.31615   0.87907   1.000
    O410    O    0.78719   0.30701   0.93301   1.000
    O411    O    0.28719   0.30701   0.93304   1.000
    O412    O    0.04438   0.69197   0.94123   1.000
    O413    O    0.54437   0.69197   0.94123   1.000
    O414    O    0.33209   0.30863   0.97182   1.000
    O415    O    0.83208   0.30863   0.97182   1.000
    O416    O    0.32779   0.66528   0.13953   1.000
    O417    O    0.82778   0.66528   0.13923   1.000
    O418    O    0.30858   0.70615   0.86196   1.000
    O419    O    0.18358   0.67541   0.83122   1.000
    O420    O    0.80857   0.70615   0.86196   1.000
    O421    O    0.68358   0.67541   0.83122   1.000
    O422    O    0.39179   0.80908   0.72229   1.000
    O423    O    0.89178   0.80908   0.72228   1.000
    O424    O    0.43998   0.83246   0.69617   1.000
    O425    O    0.56498   0.85104   0.71475   1.000
    O426    O    0.93997   0.83246   0.69616   1.000
    O427    O    0.06498   0.85104   0.71475   1.000
    O428    O    0.11676   0.68823   0.07928   1.000
    O429    O    0.61676   0.68823   0.07928   1.000
    O430    O    0.95874   0.67996   0.89578   1.000
    O431    O    0.08374   0.64922   0.86505   1.000
    O432    O    0.45874   0.67996   0.89578   1.000
    O433    O    0.58374   0.64922   0.86505   1.000
    O434    O    0.32780   0.33474   0.86049   1.000
    O435    O    0.82779   0.33474   0.86046   1.000
    O436    O    0.30858   0.29387   0.13806   1.000
    O437    O    0.18358   0.32461   0.16880   1.000
    O438    O    0.80857   0.29387   0.13806   1.000
    O439    O    0.68358   0.32461   0.16880   1.000
    O440    O    0.39179   0.19094   0.27772   1.000
    O441    O    0.89178   0.19094   0.27769   1.000
    O442    O    0.43998   0.16756   0.30385   1.000
    O443    O    0.56498   0.14898   0.28526   1.000
    O444    O    0.93998   0.16756   0.30380   1.000
    O445    O    0.06498   0.14898   0.28525   1.000
    O446    O    0.11677   0.31179   0.92074   1.000
    O447    O    0.61676   0.31179   0.92069   1.000
    O448    O    0.95874   0.32006   0.10423   1.000
    O449    O    0.08374   0.35080   0.13497   1.000
    O450    O    0.45874   0.32006   0.10423   1.000
    O451    O    0.58374   0.35080   0.13497   1.000
    O452    O    0.32779   0.86049   0.66529   1.000
    O453    O    0.82778   0.86049   0.66528   1.000
    O454    O    0.30859   0.13806   0.70615   1.000
    O455    O    0.18359   0.16880   0.67541   1.000
    O456    O    0.80858   0.13806   0.70615   1.000
    O457    O    0.68358   0.16880   0.67541   1.000
    O458    O    0.39179   0.27773   0.80908   1.000
    O459    O    0.89178   0.27773   0.80908   1.000
    O460    O    0.43999   0.30385   0.83245   1.000
    O461    O    0.56498   0.28527   0.85099   1.000
    O462    O    0.93998   0.30385   0.83221   1.000
    O463    O    0.06498   0.28527   0.85080   1.000
    O464    O    0.11676   0.92074   0.68822   1.000
    O465    O    0.61676   0.92074   0.68822   1.000
    O466    O    0.95874   0.10423   0.67996   1.000
    O467    O    0.08375   0.13497   0.64922   1.000
    O468    O    0.45874   0.10423   0.67996   1.000
    O469    O    0.58374   0.13497   0.64922   1.000
    O470    O    0.32780   0.13953   0.33473   1.000
    O471    O    0.82779   0.13953   0.33470   1.000
    O472    O    0.30858   0.86196   0.29386   1.000
    O473    O    0.18358   0.83122   0.32460   1.000
    O474    O    0.80857   0.86196   0.29386   1.000
    O475    O    0.68357   0.83122   0.32460   1.000
    O476    O    0.39179   0.72229   0.19094   1.000
    O477    O    0.89178   0.72229   0.19064   1.000
    O478    O    0.43998   0.69617   0.16756   1.000
    O479    O    0.56498   0.71475   0.14897   1.000
    O480    O    0.93997   0.69617   0.16726   1.000
    O481    O    0.06498   0.71475   0.14897   1.000
    O482    O    0.11677   0.07928   0.31178   1.000
    O483    O    0.61676   0.07928   0.31179   1.000
    O484    O    0.95873   0.89579   0.32005   1.000
    O485    O    0.08374   0.86505   0.35079   1.000
    O486    O    0.45873   0.89579   0.32005   1.000
    O487    O    0.58373   0.86505   0.35079   1.000
    O488    O    0.07780   0.16527   0.36045   1.000
    O489    O    0.57779   0.16527   0.36047   1.000
    O490    O    0.43358   0.17540   0.66880   1.000
    O491    O    0.55858   0.20614   0.63806   1.000
    O492    O    0.93358   0.17540   0.66880   1.000
    O493    O    0.05858   0.20614   0.63806   1.000
    O494    O    0.14179   0.30907   0.77770   1.000
    O495    O    0.64179   0.30907   0.77769   1.000
    O496    O    0.31499   0.35103   0.78527   1.000
    O497    O    0.18999   0.33245   0.80386   1.000
    O498    O    0.81498   0.35103   0.78527   1.000
    O499    O    0.68998   0.33245   0.80382   1.000
    O500    O    0.36677   0.18822   0.42072   1.000
    O501    O    0.86676   0.18822   0.42068   1.000
    O502    O    0.33374   0.14921   0.63498   1.000
    O503    O    0.20874   0.17995   0.60423   1.000
    O504    O    0.83374   0.14921   0.63498   1.000
    O505    O    0.70874   0.17995   0.60423   1.000
    O506    O    0.07779   0.83475   0.63950   1.000
    O507    O    0.57779   0.83475   0.63953   1.000
    O508    O    0.43358   0.82462   0.33121   1.000
    O509    O    0.55857   0.79388   0.36195   1.000
    O510    O    0.93357   0.82462   0.33121   1.000
    O511    O    0.05857   0.79388   0.36195   1.000
    O512    O    0.14179   0.69095   0.22228   1.000
    O513    O    0.64178   0.69095   0.22228   1.000
    O514    O    0.31498   0.64898   0.21474   1.000
    O515    O    0.18998   0.66757   0.19616   1.000
    O516    O    0.81498   0.64899   0.21444   1.000
    O517    O    0.68998   0.66757   0.19615   1.000
    O518    O    0.36676   0.81180   0.57929   1.000
    O519    O    0.86675   0.81180   0.57929   1.000
    O520    O    0.33374   0.85081   0.36503   1.000
    O521    O    0.20874   0.82007   0.39577   1.000
    O522    O    0.83373   0.85081   0.36503   1.000
    O523    O    0.70873   0.82007   0.39577   1.000
    O524    O    0.07780   0.36048   0.83475   1.000
    O525    O    0.57779   0.36048   0.83470   1.000
    O526    O    0.43358   0.66881   0.82462   1.000
    O527    O    0.55858   0.63807   0.79387   1.000
    O528    O    0.93357   0.66881   0.82462   1.000
    O529    O    0.05858   0.63807   0.79387   1.000
    O530    O    0.14179   0.77774   0.69094   1.000
    O531    O    0.64178   0.77774   0.69095   1.000
    O532    O    0.31498   0.78527   0.64898   1.000
    O533    O    0.18998   0.80386   0.66756   1.000
    O534    O    0.81497   0.78528   0.64898   1.000
    O535    O    0.68998   0.80386   0.66757   1.000
    O536    O    0.36677   0.42073   0.81180   1.000
    O537    O    0.86676   0.42073   0.81180   1.000
    O538    O    0.33374   0.63498   0.85080   1.000
    O539    O    0.20874   0.60424   0.82006   1.000
    O540    O    0.83373   0.63498   0.85080   1.000
    O541    O    0.70873   0.60424   0.82006   1.000
    O542    O    0.07779   0.63954   0.16527   1.000
    O543    O    0.57779   0.63954   0.16527   1.000
    O544    O    0.43358   0.33121   0.17539   1.000
    O545    O    0.55858   0.36195   0.20614   1.000
    O546    O    0.93357   0.33121   0.17539   1.000
    O547    O    0.05858   0.36195   0.20614   1.000
    O548    O    0.14179   0.22228   0.30906   1.000
    O549    O    0.64179   0.22228   0.30907   1.000
    O550    O    0.31499   0.21474   0.35102   1.000
    O551    O    0.18999   0.19616   0.33244   1.000
    O552    O    0.81498   0.21474   0.35099   1.000
    O553    O    0.68998   0.19616   0.33245   1.000
    O554    O    0.36676   0.57929   0.18822   1.000
    O555    O    0.86676   0.57929   0.18792   1.000
    O556    O    0.33374   0.36504   0.14921   1.000
    O557    O    0.20874   0.39578   0.17995   1.000
    O558    O    0.83373   0.36504   0.14921   1.000
    O559    O    0.70873   0.39578   0.17995   1.000
    N560    N    0.89022   0.17683   0.04981   1.000
    O561    O    0.83604   0.22317   0.01494   1.000
    O562    O    0.93925   0.17695   0.11024   1.000
    O563    O    0.81611   0.18260   0.08645   1.000
    O564    O    0.96324   0.21625   0.03885   1.000
    N565    N    0.39021   0.95017   0.17682   1.000
    O566    O    0.43925   0.88975   0.17693   1.000
    O567    O    0.31611   0.91355   0.18259   1.000
    O568    O    0.46323   0.96115   0.21623   1.000
    O569    O    0.33604   0.98496   0.22316   1.000
    N570    N    0.14022   0.54983   0.67684   1.000
    O571    O    0.21324   0.53887   0.71625   1.000
    O572    O    0.06611   0.58646   0.68261   1.000
    O573    O    0.18925   0.61027   0.67696   1.000
    O574    O    0.08605   0.51495   0.72318   1.000
    N575    N    0.14022   0.32318   0.54982   1.000
    O576    O    0.18925   0.32306   0.61026   1.000
    O577    O    0.21324   0.28376   0.53885   1.000
    O578    O    0.08605   0.27684   0.51494   1.000
    O579    O    0.06612   0.31741   0.58646   1.000
    N580    N    0.89021   0.95018   0.17682   1.000
    O581    O    0.93924   0.88975   0.17694   1.000
    O582    O    0.83604   0.98496   0.22317   1.000
    O583    O    0.96324   0.96115   0.21625   1.000
    O584    O    0.81611   0.91356   0.18259   1.000
    N585    N    0.39022   0.82319   0.95016   1.000
    O586    O    0.31611   0.81742   0.91350   1.000
    O587    O    0.43925   0.82307   0.88974   1.000
    O588    O    0.46324   0.78377   0.96114   1.000
    O589    O    0.33604   0.77685   0.98495   1.000
    N590    N    0.64021   0.67684   0.45017   1.000
    O591    O    0.71323   0.71627   0.46114   1.000
    O592    O    0.56611   0.68261   0.41355   1.000
    O593    O    0.68924   0.67696   0.38974   1.000
    O594    O    0.58604   0.72319   0.48506   1.000
    N595    N    0.64022   0.32318   0.54982   1.000
    O596    O    0.71324   0.28376   0.53886   1.000
    O597    O    0.56611   0.31741   0.58646   1.000
    O598    O    0.58604   0.27684   0.51494   1.000
    O599    O    0.68925   0.32306   0.61025   1.000
    N600    N    0.64022   0.54983   0.67684   1.000
    O601    O    0.71324   0.53887   0.71626   1.000
    O602    O    0.58604   0.51495   0.72318   1.000
    O603    O    0.56611   0.58646   0.68261   1.000
    O604    O    0.68925   0.61027   0.67696   1.000
    N605    N    0.39022   0.17683   0.04982   1.000
    O606    O    0.46324   0.21625   0.03885   1.000
    O607    O    0.31612   0.18260   0.08645   1.000
    O608    O    0.43925   0.17695   0.11025   1.000
    O609    O    0.33605   0.22318   0.01494   1.000
    N610    N    0.14022   0.67684   0.45018   1.000
    O611    O    0.21324   0.71626   0.46115   1.000
    O612    O    0.08605   0.72318   0.48507   1.000
    O613    O    0.06611   0.68261   0.41355   1.000
    O614    O    0.18925   0.67697   0.38973   1.000
    N615    N    0.39022   0.04983   0.82318   1.000
    O616    O    0.46325   0.03886   0.78374   1.000
    O617    O    0.43925   0.11026   0.82306   1.000
    O618    O    0.31612   0.08646   0.81742   1.000
    O619    O    0.33605   0.01495   0.77684   1.000
    N620    N    0.64021   0.45019   0.32317   1.000
    O621    O    0.71324   0.46115   0.28373   1.000
    O622    O    0.58604   0.48507   0.27683   1.000
    O623    O    0.56611   0.41356   0.31731   1.000
    O624    O    0.68925   0.38975   0.32305   1.000
    N625    N    0.89021   0.82319   0.95016   1.000
    O626    O    0.83604   0.77685   0.98483   1.000
    O627    O    0.93925   0.82307   0.88974   1.000
    O628    O    0.96324   0.78377   0.96114   1.000
    O629    O    0.81611   0.81742   0.91352   1.000
    N630    N    0.14022   0.45019   0.32317   1.000
    O631    O    0.18925   0.38975   0.32305   1.000
    O632    O    0.21324   0.46115   0.28373   1.000
    O633    O    0.06611   0.41356   0.31731   1.000
    O634    O    0.08605   0.48507   0.27683   1.000
    N635    N    0.89022   0.04983   0.82318   1.000
    O636    O    0.93925   0.11026   0.82306   1.000
    O637    O    0.81611   0.08646   0.81741   1.000
    O638    O    0.96325   0.03886   0.78374   1.000
    O639    O    0.83604   0.01495   0.77684   1.000
loop_
    _geom_bond_atom_site_label_1
    _geom_bond_atom_site_label_2
    _geom_bond_distance
    _geom_bond_site_symmetry_2
    _ccdc_geom_bond_type
    Zr109  O224      0.63156  1_554   S
    Zr39   O224      0.63156      .   S
    Zr108  O225      0.63156  1_554   S
    Zr38   O225      0.63156      .   S
    Zr96   O226      0.63343      .   S
    Zr32   O226      0.63343      .   S
    Zr96   O227      1.40435  1_554   S
    Zr2    O227      1.40435      .   S
    Zr97   O228      0.63173      .   S
    Zr33   O228      0.63173      .   S
    Zr97   O229      1.40435  1_554   S
    Zr3    O229      1.40435      .   S
    Zr47   O230      0.63938      .   S
    Zr127  O230      0.63938      .   S
    Zr47   O231      0.63162      .   S
    Zr125  O231      0.63162  1_556   S
    Zr46   O232      0.63937      .   S
    Zr126  O232      0.63937      .   S
    Zr46   O233      0.63163      .   S
    Zr124  O233      0.63163  1_556   S
    Zr33   O234      0.64380      .   S
    Zr99   O234      0.64380      .   S
    Zr32   O235      0.63967      .   S
    Zr98   O235      0.63967      .   S
    Zr98   O236      1.37552      .   S
    Zr20   O236      1.37552      .   S
    Zr99   O237      1.37551      .   S
    Zr21   O237      1.37551      .   S
    Zr6    O238      1.40696      .   S
    Zr120  O238      1.40696      .   S
    Zr6    O239      1.40434      .   S
    Zr112  O239      1.40434  1_556   S
    Zr7    O240      1.40699      .   S
    Zr121  O240      1.40699      .   S
    Zr7    O241      1.40434      .   S
    Zr113  O241      1.40434  1_556   S
    Zr21   O242      1.36790      .   S
    Zr151  O242      1.36790      .   S
    Zr20   O243      1.36792      .   S
    Zr150  O243      1.36792      .   S
    Zr43   O244      0.63896      .   S
    Zr117  O244      0.63896      .   S
    Zr43   O245      0.63153      .   S
    Zr119  O245      0.63153      .   S
    Zr42   O246      0.63895      .   S
    Zr116  O246      0.63895      .   S
    Zr42   O247      0.63152      .   S
    Zr118  O247      0.63152      .   S
    Zr154  O248      0.63746      .   S
    Zr60   O248      0.63746      .   S
    Zr155  O249      0.63763      .   S
    Zr61   O249      0.63763      .   S
    Zr223  O250      0.63907      .   S
    Zr95   O250      0.63907      .   S
    Zr222  O251      0.63906      .   S
    Zr94   O251      0.63906      .   S
    Zr60   O252      0.63640      .   S
    Zr152  O252      0.63640      .   S
    Zr61   O253      0.63625      .   S
    Zr153  O253      0.63625      .   S
    Zr150  O254      0.63154      .   S
    Zr58   O254      0.63154      .   S
    Zr151  O255      0.63153      .   S
    Zr59   O255      0.63153      .   S
    Zr209  O256      1.40456      .   S
    Zr31   O256      1.40456      .   S
    Zr209  O257      0.63344      .   S
    Zr89   O257      0.63344      .   S
    Zr208  O258      1.40455      .   S
    Zr30   O258      1.40455      .   S
    Zr208  O259      0.63343      .   S
    Zr88   O259      0.63343      .   S
    Zr211  O260      1.37551      .   S
    Zr12   O260      1.37551      .   S
    Zr211  O261      0.63962      .   S
    Zr89   O261      0.63962      .   S
    Zr210  O262      1.37556  1_455   S
    Zr13   O262      1.37556      .   S
    Zr210  O263      0.63962      .   S
    Zr88   O263      0.63962      .   S
    Zr13   O264      1.37333      .   S
    Zr183  O264      1.37333      .   S
    Zr12   O265      1.36781      .   S
    Zr182  O265      1.36781      .   S
    Zr30   O266      1.40696      .   S
    Zr216  O266      1.40696      .   S
    Zr31   O267      1.40695      .   S
    Zr217  O267      1.40695      .   S
    Zr118  O268      1.36781      .   S
    Zr28   O268      1.36781      .   S
    Zr119  O269      1.36790      .   S
    Zr29   O269      1.36790      .   S
    Zr220  O270      0.63160      .   S
    Zr94   O270      0.63160      .   S
    Zr221  O271      0.63159      .   S
    Zr95   O271      0.63159      .   S
    Zr152  O272      1.40695      .   S
    Zr14   O272      1.40695      .   S
    Zr153  O273      1.40695      .   S
    Zr15   O273      1.40695      .   S
    Zr121  O274      0.63624      .   S
    Zr45   O274      0.63624      .   S
    Zr120  O275      0.63623      .   S
    Zr44   O275      0.63623      .   S
    Zr45   O276      0.63751      .   S
    Zr123  O276      0.63751      .   S
    Zr44   O277      0.63766      .   S
    Zr122  O277      0.63766      .   S
    Zr58   O278      0.63888      .   S
    Zr148  O278      0.63888      .   S
    Zr59   O279      0.63888      .   S
    Zr149  O279      0.63888      .   S
    Zr213  O280      0.63510      .   S
    Zr91   O280      0.63510      .   S
    Zr212  O281      0.63510      .   S
    Zr90   O281      0.63510      .   S
    Zr187  O282      0.63764      .   S
    Zr77   O282      0.63764      .   S
    Zr186  O283      0.63762      .   S
    Zr76   O283      0.63762      .   S
    Zr91   O284      0.63348      .   S
    Zr215  O284      0.63348      .   S
    Zr90   O285      0.63348      .   S
    Zr214  O285      0.63348      .   S
    Zr63   O286      0.63178      .   S
    Zr157  O286      0.63178  1_545   S
    Zr63   O287      0.63959      .   S
    Zr159  O287      0.63959      .   S
    Zr62   O288      0.63164      .   S
    Zr156  O288      0.63164  1_545   S
    Zr62   O289      0.63934      .   S
    Zr158  O289      0.63934      .   S
    Zr77   O290      0.63624      .   S
    Zr185  O290      0.63624      .   S
    Zr76   O291      0.63624      .   S
    Zr184  O291      0.63624      .   S
    Zr56   O292      0.63963      .   S
    Zr146  O292      0.63963      .   S
    Zr56   O293      0.63345      .   S
    Zr144  O293      0.63345      .   S
    Zr57   O294      0.63961      .   S
    Zr147  O294      0.63961      .   S
    Zr57   O295      0.63342      .   S
    Zr145  O295      0.63342      .   S
    Zr185  O296      1.40695      .   S
    Zr23   O296      1.40695      .   S
    Zr184  O297      1.40702      .   S
    Zr22   O297      1.40702      .   S
    Zr216  O298      0.63626      .   S
    Zr92   O298      0.63626      .   S
    Zr217  O299      0.63624      .   S
    Zr93   O299      0.63624      .   S
    Zr182  O300      0.63158      .   S
    Zr74   O300      0.63158      .   S
    Zr183  O301      0.63152      .   S
    Zr75   O301      0.63152      .   S
    Zr14   O302      1.40435      .   S
    Zr144  O302      1.40435  1_545   S
    Zr15   O303      1.40433      .   S
    Zr145  O303      1.40433  1_545   S
    Zr28   O304      1.37551      .   S
    Zr146  O304      1.37551      .   S
    Zr29   O305      1.37551      .   S
    Zr147  O305      1.37551      .   S
    Zr214  O306      1.36790      .   S
    Zr4    O306      1.36790      .   S
    Zr215  O307      1.36776      .   S
    Zr5    O307      1.36776      .   S
    Zr93   O308      0.63765      .   S
    Zr219  O308      0.63765      .   S
    Zr92   O309      0.63762      .   S
    Zr218  O309      0.63762      .   S
    Zr180  O310      0.63896      .   S
    Zr74   O310      0.63896      .   S
    Zr181  O311      0.63895      .   S
    Zr75   O311      0.63895      .   S
    Zr5    O312      1.37575      .   S
    Zr162  O312      1.37575  1_455   S
    Zr4    O313      1.37551      .   S
    Zr163  O313      1.37551      .   S
    Zr23   O314      1.40454      .   S
    Zr177  O314      1.40454      .   S
    Zr22   O315      1.40455      .   S
    Zr176  O315      1.40455      .   S
    Zr162  O316      0.64001      .   S
    Zr64   O316      0.64001      .   S
    Zr163  O317      0.63967      .   S
    Zr65   O317      0.63967      .   S
    Zr190  O318      0.63936      .   S
    Zr78   O318      0.63936      .   S
    Zr191  O319      0.63939      .   S
    Zr79   O319      0.63939      .   S
    Zr65   O320      0.63343      .   S
    Zr161  O320      0.63343      .   S
    Zr64   O321      0.63342      .   S
    Zr160  O321      0.63342      .   S
    Zr78   O322      0.63175      .   S
    Zr188  O322      0.63175      .   S
    Zr79   O323      0.63172      .   S
    Zr189  O323      0.63172      .   S
    Zr160  O324      1.40454      .   S
    Zr18   O324      1.40454      .   S
    Zr161  O325      1.40454      .   S
    Zr19   O325      1.40454      .   S
    Zr173  O326      0.63173      .   S
    Zr71   O326      0.63173      .   S
    Zr172  O327      0.63173      .   S
    Zr70   O327      0.63173      .   S
    Zr177  O328      0.63343      .   S
    Zr73   O328      0.63343      .   S
    Zr176  O329      0.63342      .   S
    Zr72   O329      0.63342      .   S
    Zr71   O330      0.63938      .   S
    Zr175  O330      0.63938      .   S
    Zr70   O331      0.63937      .   S
    Zr174  O331      0.63937      .   S
    Zr73   O332      0.63966      .   S
    Zr179  O332      0.63966      .   S
    Zr72   O333      0.63905      .   S
    Zr178  O333      0.63905      .   S
    Zr178  O334      1.37584  1_455   S
    Zr1    O334      1.37584      .   S
    Zr179  O335      1.37551      .   S
    Zr0    O335      1.37551      .   S
    Zr18   O336      1.40653      .   S
    Zr168  O336      1.40653      .   S
    Zr19   O337      1.40697      .   S
    Zr169  O337      1.40697      .   S
    Zr1    O338      1.36790      .   S
    Zr199  O338      1.36790      .   S
    Zr0    O339      1.36786      .   S
    Zr198  O339      1.36786      .   S
    Zr67   O340      0.63895      .   S
    Zr165  O340      0.63895      .   S
    Zr67   O341      0.63153      .   S
    Zr167  O341      0.63153      .   S
    Zr66   O342      0.63895      .   S
    Zr164  O342      0.63895      .   S
    Zr66   O343      0.63152      .   S
    Zr166  O343      0.63152      .   S
    Zr202  O344      0.63764      .   S
    Zr84   O344      0.63764      .   S
    Zr203  O345      0.63764      .   S
    Zr85   O345      0.63764      .   S
    Zr142  O346      0.63901      .   S
    Zr54   O346      0.63901      .   S
    Zr143  O347      0.63901      .   S
    Zr55   O347      0.63901      .   S
    Zr85   O348      0.63625      .   S
    Zr201  O348      0.63625      .   S
    Zr84   O349      0.63624      .   S
    Zr200  O349      0.63624      .   S
    Zr199  O350      0.63153      .   S
    Zr83   O350      0.63153      .   S
    Zr198  O351      0.63153      .   S
    Zr82   O351      0.63153      .   S
    Zr128  O352      1.40440  1_565   S
    Zr10   O352      1.40440      .   S
    Zr128  O353      0.63345      .   S
    Zr48   O353      0.63345      .   S
    Zr129  O354      1.40433  1_565   S
    Zr11   O354      1.40433      .   S
    Zr129  O355      0.63342      .   S
    Zr49   O355      0.63342      .   S
    Zr131  O356      1.37552      .   S
    Zr25   O356      1.37552      .   S
    Zr131  O357      0.63961      .   S
    Zr49   O357      0.63961      .   S
    Zr130  O358      1.37553      .   S
    Zr24   O358      1.37553      .   S
    Zr130  O359      0.63961      .   S
    Zr48   O359      0.63961      .   S
    Zr24   O360      1.36790      .   S
    Zr102  O360      1.36790      .   S
    Zr25   O361      1.36790      .   S
    Zr103  O361      1.36790      .   S
    Zr11   O362      1.40704      .   S
    Zr137  O362      1.40704      .   S
    Zr10   O363      1.40696      .   S
    Zr136  O363      1.40696      .   S
    Zr166  O364      1.36789      .   S
    Zr8    O364      1.36789      .   S
    Zr167  O365      1.36790      .   S
    Zr9    O365      1.36790      .   S
    Zr141  O366      0.63137  1_565   S
    Zr55   O366      0.63137      .   S
    Zr140  O367      0.63138  1_565   S
    Zr54   O367      0.63138      .   S
    Zr200  O368      1.40703      .   S
    Zr26   O368      1.40703      .   S
    Zr201  O369      1.40695      .   S
    Zr27   O369      1.40695      .   S
    Zr168  O370      0.63624      .   S
    Zr68   O370      0.63624      .   S
    Zr169  O371      0.63624      .   S
    Zr69   O371      0.63624      .   S
    Zr68   O372      0.63766      .   S
    Zr170  O372      0.63766      .   S
    Zr69   O373      0.63766      .   S
    Zr171  O373      0.63766      .   S
    Zr83   O374      0.63888      .   S
    Zr197  O374      0.63888      .   S
    Zr82   O375      0.63888      .   S
    Zr196  O375      0.63888      .   S
    Zr132  O376      0.63897      .   S
    Zr50   O376      0.63897      .   S
    Zr133  O377      0.63888      .   S
    Zr51   O377      0.63888      .   S
    Zr107  O378      0.63764      .   S
    Zr37   O378      0.63764      .   S
    Zr106  O379      0.63764      .   S
    Zr36   O379      0.63764      .   S
    Zr51   O380      0.63153      .   S
    Zr135  O380      0.63153      .   S
    Zr50   O381      0.63149      .   S
    Zr134  O381      0.63149      .   S
    Zr86   O382      0.63189      .   S
    Zr204  O382      0.63189      .   S
    Zr86   O383      0.63965      .   S
    Zr206  O383      0.63965      .   S
    Zr87   O384      0.63173      .   S
    Zr205  O384      0.63173      .   S
    Zr87   O385      0.63932      .   S
    Zr207  O385      0.63932      .   S
    Zr37   O386      0.63624      .   S
    Zr105  O386      0.63624      .   S
    Zr36   O387      0.63625      .   S
    Zr104  O387      0.63625      .   S
    Zr81   O388      0.63962      .   S
    Zr195  O388      0.63962      .   S
    Zr81   O389      0.63342      .   S
    Zr193  O389      0.63342      .   S
    Zr80   O390      0.63959      .   S
    Zr194  O390      0.63959      .   S
    Zr80   O391      0.63343      .   S
    Zr192  O391      0.63343      .   S
    Zr104  O392      1.40694      .   S
    Zr2    O392      1.40694      .   S
    Zr105  O393      1.40697      .   S
    Zr3    O393      1.40697      .   S
    Zr136  O394      0.63624      .   S
    Zr52   O394      0.63624      .   S
    Zr137  O395      0.63623      .   S
    Zr53   O395      0.63623      .   S
    Zr103  O396      0.63157      .   S
    Zr35   O396      0.63157      .   S
    Zr102  O397      0.63112      .   S
    Zr34   O397      0.63112      .   S
    Zr26   O398      1.40450      .   S
    Zr192  O398      1.40450      .   S
    Zr27   O399      1.40454      .   S
    Zr193  O399      1.40454      .   S
    Zr8    O400      1.37551      .   S
    Zr195  O400      1.37551      .   S
    Zr9    O401      1.37564      .   S
    Zr194  O401      1.37564  1_455   S
    Zr134  O402      1.36791      .   S
    Zr16   O402      1.36791      .   S
    Zr135  O403      1.36771      .   S
    Zr17   O403      1.36771      .   S
    Zr53   O404      0.63577      .   S
    Zr139  O404      0.63577      .   S
    Zr52   O405      0.63760      .   S
    Zr138  O405      0.63760      .   S
    Zr101  O406      0.63896      .   S
    Zr35   O406      0.63896      .   S
    Zr100  O407      0.63893      .   S
    Zr34   O407      0.63893      .   S
    Zr17   O408      1.37563      .   S
    Zr115  O408      1.37563      .   S
    Zr16   O409      1.37549      .   S
    Zr114  O409      1.37549      .   S
    Zr115  O410      0.64010      .   S
    Zr41   O410      0.64010      .   S
    Zr114  O411      0.63966      .   S
    Zr40   O411      0.63966      .   S
    Zr110  O412      0.63938      .   S
    Zr38   O412      0.63938      .   S
    Zr111  O413      0.63938      .   S
    Zr39   O413      0.63938      .   S
    Zr40   O414      0.63343      .   S
    Zr112  O414      0.63343      .   S
    Zr41   O415      0.63342      .   S
    Zr113  O415      0.63342      .   S
    Zr98   O416      1.39974      .   S
    Zr12   O416      1.39974      .   S
    Zr99   O417      1.39597      .   S
    Zr13   O417      1.39597      .   S
    Zr100  O418      1.44674      .   S
    Zr2    O418      1.44674      .   S
    Zr100  O419      1.42004      .   S
    Zr26   O419      1.42004      .   S
    Zr101  O420      1.44672      .   S
    Zr3    O420      1.44672      .   S
    Zr101  O421      1.42003      .   S
    Zr27   O421      1.42003      .   S
    Zr104  O422      1.49198      .   S
    Zr0    O422      1.49198      .   S
    Zr105  O423      1.49208      .   S
    Zr1    O423      1.49208      .   S
    Zr106  O424      1.45446      .   S
    Zr0    O424      1.45446      .   S
    Zr106  O425      1.39021      .   S
    Zr25   O425      1.39021      .   S
    Zr107  O426      1.45454      .   S
    Zr1    O426      1.45454      .   S
    Zr107  O427      1.39031  1_655   S
    Zr24   O427      1.39031      .   S
    Zr108  O428      1.38263      .   S
    Zr20   O428      1.38263      .   S
    Zr109  O429      1.38263      .   S
    Zr21   O429      1.38263      .   S
    Zr110  O430      1.45273  1_455   S
    Zr3    O430      1.45273      .   S
    Zr110  O431      1.43040      .   S
    Zr26   O431      1.43040      .   S
    Zr111  O432      1.45259      .   S
    Zr2    O432      1.45259      .   S
    Zr111  O433      1.43041      .   S
    Zr27   O433      1.43041      .   S
    Zr114  O434      1.39969      .   S
    Zr8    O434      1.39969      .   S
    Zr115  O435      1.39935      .   S
    Zr9    O435      1.39935      .   S
    Zr116  O436      1.44674      .   S
    Zr6    O436      1.44674      .   S
    Zr116  O437      1.42000      .   S
    Zr30   O437      1.42000      .   S
    Zr117  O438      1.44673      .   S
    Zr7    O438      1.44673      .   S
    Zr117  O439      1.42000      .   S
    Zr31   O439      1.42000      .   S
    Zr120  O440      1.49198      .   S
    Zr4    O440      1.49198      .   S
    Zr121  O441      1.49129      .   S
    Zr5    O441      1.49129      .   S
    Zr122  O442      1.45445      .   S
    Zr4    O442      1.45445      .   S
    Zr122  O443      1.39021      .   S
    Zr29   O443      1.39021      .   S
    Zr123  O444      1.45413      .   S
    Zr5    O444      1.45413      .   S
    Zr123  O445      1.39037  1_655   S
    Zr28   O445      1.39037      .   S
    Zr124  O446      1.38253      .   S
    Zr16   O446      1.38253      .   S
    Zr125  O447      1.38340      .   S
    Zr17   O447      1.38340      .   S
    Zr126  O448      1.45272  1_455   S
    Zr7    O448      1.45272      .   S
    Zr126  O449      1.43042      .   S
    Zr30   O449      1.43042      .   S
    Zr127  O450      1.45260      .   S
    Zr6    O450      1.45260      .   S
    Zr127  O451      1.43043      .   S
    Zr31   O451      1.43043      .   S
    Zr130  O452      1.39973      .   S
    Zr0    O452      1.39973      .   S
    Zr131  O453      1.39973      .   S
    Zr1    O453      1.39973      .   S
    Zr132  O454      1.44677      .   S
    Zr10   O454      1.44677      .   S
    Zr132  O455      1.42002      .   S
    Zr18   O455      1.42002      .   S
    Zr133  O456      1.44671      .   S
    Zr11   O456      1.44671      .   S
    Zr133  O457      1.42004      .   S
    Zr19   O457      1.42004      .   S
    Zr136  O458      1.49198      .   S
    Zr8    O458      1.49198      .   S
    Zr137  O459      1.49199      .   S
    Zr9    O459      1.49199      .   S
    Zr138  O460      1.45447      .   S
    Zr8    O460      1.45447      .   S
    Zr138  O461      1.39019      .   S
    Zr17   O461      1.39019      .   S
    Zr139  O462      1.45341      .   S
    Zr9    O462      1.45341      .   S
    Zr139  O463      1.39045  1_655   S
    Zr16   O463      1.39045      .   S
    Zr140  O464      1.38258      .   S
    Zr24   O464      1.38258      .   S
    Zr141  O465      1.38256      .   S
    Zr25   O465      1.38256      .   S
    Zr142  O466      1.45274  1_455   S
    Zr11   O466      1.45274      .   S
    Zr142  O467      1.43040      .   S
    Zr18   O467      1.43040      .   S
    Zr143  O468      1.45257      .   S
    Zr10   O468      1.45257      .   S
    Zr143  O469      1.43043      .   S
    Zr19   O469      1.43043      .   S
    Zr146  O470      1.39971      .   S
    Zr4    O470      1.39971      .   S
    Zr147  O471      1.39953      .   S
    Zr5    O471      1.39953      .   S
    Zr148  O472      1.44674      .   S
    Zr14   O472      1.44674      .   S
    Zr148  O473      1.42005      .   S
    Zr22   O473      1.42005      .   S
    Zr149  O474      1.44674      .   S
    Zr15   O474      1.44674      .   S
    Zr149  O475      1.42002      .   S
    Zr23   O475      1.42002      .   S
    Zr152  O476      1.49200      .   S
    Zr12   O476      1.49200      .   S
    Zr153  O477      1.49249      .   S
    Zr13   O477      1.49249      .   S
    Zr154  O478      1.45454      .   S
    Zr12   O478      1.45454      .   S
    Zr154  O479      1.39021      .   S
    Zr21   O479      1.39021      .   S
    Zr155  O480      1.45317      .   S
    Zr13   O480      1.45317      .   S
    Zr155  O481      1.39030  1_655   S
    Zr20   O481      1.39030      .   S
    Zr156  O482      1.38258      .   S
    Zr28   O482      1.38258      .   S
    Zr157  O483      1.38258      .   S
    Zr29   O483      1.38258      .   S
    Zr158  O484      1.45273  1_455   S
    Zr15   O484      1.45273      .   S
    Zr158  O485      1.43038      .   S
    Zr22   O485      1.43038      .   S
    Zr159  O486      1.45260      .   S
    Zr14   O486      1.45260      .   S
    Zr159  O487      1.43042      .   S
    Zr23   O487      1.43042      .   S
    Zr162  O488      1.39948      .   S
    Zr28   O488      1.39948      .   S
    Zr163  O489      1.39967      .   S
    Zr29   O489      1.39967      .   S
    Zr164  O490      1.42000      .   S
    Zr10   O490      1.42000      .   S
    Zr164  O491      1.44673      .   S
    Zr19   O491      1.44673      .   S
    Zr165  O492      1.42004      .   S
    Zr11   O492      1.42004      .   S
    Zr165  O493      1.44685  1_655   S
    Zr18   O493      1.44685      .   S
    Zr168  O494      1.49286      .   S
    Zr16   O494      1.49286      .   S
    Zr169  O495      1.49119      .   S
    Zr17   O495      1.49119      .   S
    Zr170  O496      1.39023      .   S
    Zr8    O496      1.39023      .   S
    Zr170  O497      1.45453      .   S
    Zr16   O497      1.45453      .   S
    Zr171  O498      1.39021      .   S
    Zr9    O498      1.39021      .   S
    Zr171  O499      1.45393      .   S
    Zr17   O499      1.45393      .   S
    Zr172  O500      1.38263      .   S
    Zr4    O500      1.38263      .   S
    Zr173  O501      1.38330      .   S
    Zr5    O501      1.38330      .   S
    Zr174  O502      1.43043      .   S
    Zr10   O502      1.43043      .   S
    Zr174  O503      1.45260      .   S
    Zr18   O503      1.45260      .   S
    Zr175  O504      1.43040      .   S
    Zr11   O504      1.43040      .   S
    Zr175  O505      1.45261      .   S
    Zr19   O505      1.45261      .   S
    Zr178  O506      1.40012      .   S
    Zr24   O506      1.40012      .   S
    Zr179  O507      1.39968      .   S
    Zr25   O507      1.39968      .   S
    Zr180  O508      1.42001      .   S
    Zr14   O508      1.42001      .   S
    Zr180  O509      1.44674      .   S
    Zr23   O509      1.44674      .   S
    Zr181  O510      1.42002      .   S
    Zr15   O510      1.42002      .   S
    Zr181  O511      1.44679  1_655   S
    Zr22   O511      1.44679      .   S
    Zr184  O512      1.49197      .   S
    Zr20   O512      1.49197      .   S
    Zr185  O513      1.49198      .   S
    Zr21   O513      1.49198      .   S
    Zr186  O514      1.39023      .   S
    Zr12   O514      1.39023      .   S
    Zr186  O515      1.45453      .   S
    Zr20   O515      1.45453      .   S
    Zr187  O516      1.39271      .   S
    Zr13   O516      1.39271      .   S
    Zr187  O517      1.45446      .   S
    Zr21   O517      1.45446      .   S
    Zr188  O518      1.38263      .   S
    Zr0    O518      1.38263      .   S
    Zr189  O519      1.38253      .   S
    Zr1    O519      1.38253      .   S
    Zr190  O520      1.43041      .   S
    Zr14   O520      1.43041      .   S
    Zr190  O521      1.45266      .   S
    Zr22   O521      1.45266      .   S
    Zr191  O522      1.43042      .   S
    Zr15   O522      1.43042      .   S
    Zr191  O523      1.45258      .   S
    Zr23   O523      1.45258      .   S
    Zr194  O524      1.39975      .   S
    Zr16   O524      1.39975      .   S
    Zr195  O525      1.39951      .   S
    Zr17   O525      1.39951      .   S
    Zr196  O526      1.42002      .   S
    Zr2    O526      1.42002      .   S
    Zr196  O527      1.44673      .   S
    Zr27   O527      1.44673      .   S
    Zr197  O528      1.42003      .   S
    Zr3    O528      1.42003      .   S
    Zr197  O529      1.44681  1_655   S
    Zr26   O529      1.44681      .   S
    Zr200  O530      1.49199      .   S
    Zr24   O530      1.49199      .   S
    Zr201  O531      1.49199      .   S
    Zr25   O531      1.49199      .   S
    Zr202  O532      1.39026      .   S
    Zr0    O532      1.39026      .   S
    Zr202  O533      1.45452      .   S
    Zr24   O533      1.45452      .   S
    Zr203  O534      1.39021      .   S
    Zr1    O534      1.39021      .   S
    Zr203  O535      1.45450      .   S
    Zr25   O535      1.45450      .   S
    Zr204  O536      1.38258      .   S
    Zr8    O536      1.38258      .   S
    Zr205  O537      1.38256      .   S
    Zr9    O537      1.38256      .   S
    Zr206  O538      1.43041      .   S
    Zr2    O538      1.43041      .   S
    Zr206  O539      1.45263      .   S
    Zr26   O539      1.45263      .   S
    Zr207  O540      1.43041      .   S
    Zr3    O540      1.43041      .   S
    Zr207  O541      1.45260      .   S
    Zr27   O541      1.45260      .   S
    Zr210  O542      1.39970      .   S
    Zr20   O542      1.39970      .   S
    Zr211  O543      1.39971      .   S
    Zr21   O543      1.39971      .   S
    Zr212  O544      1.42004      .   S
    Zr6    O544      1.42004      .   S
    Zr212  O545      1.44673      .   S
    Zr31   O545      1.44673      .   S
    Zr213  O546      1.42003      .   S
    Zr7    O546      1.42003      .   S
    Zr213  O547      1.44686  1_655   S
    Zr30   O547      1.44686      .   S
    Zr216  O548      1.49198      .   S
    Zr28   O548      1.49198      .   S
    Zr217  O549      1.49200      .   S
    Zr29   O549      1.49200      .   S
    Zr218  O550      1.39021      .   S
    Zr4    O550      1.39021      .   S
    Zr218  O551      1.45454      .   S
    Zr28   O551      1.45454      .   S
    Zr219  O552      1.39019      .   S
    Zr5    O552      1.39019      .   S
    Zr219  O553      1.45452      .   S
    Zr29   O553      1.45452      .   S
    Zr220  O554      1.38256      .   S
    Zr12   O554      1.38256      .   S
    Zr221  O555      1.38289      .   S
    Zr13   O555      1.38289      .   S
    Zr222  O556      1.43040      .   S
    Zr6    O556      1.43040      .   S
    Zr222  O557      1.45261      .   S
    Zr30   O557      1.45261      .   S
    Zr223  O558      1.43040      .   S
    Zr7    O558      1.43040      .   S
    Zr223  O559      1.45260      .   S
    Zr31   O559      1.45260      .   S
    N560   O561      1.51675      .   S
    Zr41   O561      1.91711  1_556   S
    N560   O562      1.49470      .   S
    Zr45   O562      1.89500      .   S
    N560   O563      1.54424      .   S
    Zr43   O563      2.20228      .   S
    N560   O564      1.56455      .   S
    Zr46   O564      2.22269  1_455   S
    N565   O566      1.49464      .   S
    Zr60   O566      1.89457      .   S
    N565   O567      1.54407      .   S
    Zr58   O567      2.20213      .   S
    N565   O568      1.56444      .   S
    Zr63   O568      2.22226      .   S
    N565   O569      1.51597      .   S
    Zr56   O569      1.91841  1_545   S
    N570   O571      1.56437      .   S
    Zr86   O571      2.22211      .   S
    N570   O572      1.54423      .   S
    Zr83   O572      2.20237  1_655   S
    N570   O573      1.49488      .   S
    Zr84   O573      1.89482      .   S
    N570   O574      1.51680      .   S
    Zr80   O574      1.91732      .   S
    N575   O576      1.49490      .   S
    Zr68   O576      1.89489      .   S
    N575   O577      1.56450      .   S
    Zr70   O577      2.22265      .   S
    N575   O578      1.51675      .   S
    Zr64   O578      1.91726      .   S
    N575   O579      1.54425      .   S
    Zr67   O579      2.20239  1_655   S
    N580   O581      1.49465      .   S
    Zr61   O581      1.89453      .   S
    N580   O582      1.51598      .   S
    Zr57   O582      1.91843  1_545   S
    N580   O583      1.56463      .   S
    Zr62   O583      2.22280  1_455   S
    N580   O584      1.54411      .   S
    Zr59   O584      2.20213      .   S
    N585   O586      1.54436      .   S
    Zr34   O586      2.20237      .   S
    N585   O587      1.49456      .   S
    Zr36   O587      1.89449      .   S
    N585   O588      1.56455      .   S
    Zr39   O588      2.22268      .   S
    N585   O589      1.51602      .   S
    Zr32   O589      1.91847  1_554   S
    N590   O591      1.56451      .   S
    Zr79   O591      2.22266      .   S
    N590   O592      1.54410      .   S
    Zr74   O592      2.20208      .   S
    N590   O593      1.49473      .   S
    Zr77   O593      1.89470      .   S
    N590   O594      1.51686      .   S
    Zr73   O594      1.91737      .   S
    N595   O596      1.56448      .   S
    Zr71   O596      2.22264      .   S
    N595   O597      1.54421      .   S
    Zr66   O597      2.20226      .   S
    N595   O598      1.51678      .   S
    Zr65   O598      1.91727      .   S
    N595   O599      1.49468      .   S
    Zr69   O599      1.89511      .   S
    N600   O601      1.56451      .   S
    Zr87   O601      2.22269      .   S
    N600   O602      1.51681      .   S
    Zr81   O602      1.91731      .   S
    N600   O603      1.54418      .   S
    Zr82   O603      2.20222      .   S
    N600   O604      1.49486      .   S
    Zr85   O604      1.89480      .   S
    N605   O606      1.56449      .   S
    Zr47   O606      2.22265      .   S
    N605   O607      1.54418      .   S
    Zr42   O607      2.20222      .   S
    N605   O608      1.49481      .   S
    Zr44   O608      1.89479      .   S
    N605   O609      1.51677      .   S
    Zr40   O609      1.91715  1_556   S
    N610   O611      1.56450      .   S
    Zr78   O611      2.22264      .   S
    N610   O612      1.51681      .   S
    Zr72   O612      1.91735      .   S
    N610   O613      1.54421      .   S
    Zr75   O613      2.20233  1_655   S
    N610   O614      1.49503      .   S
    Zr76   O614      1.89447      .   S
    N615   O616      1.56468      .   S
    Zr55   O616      2.22332      .   S
    N615   O617      1.49482      .   S
    Zr52   O617      1.89476      .   S
    N615   O618      1.54412      .   S
    Zr50   O618      2.20214      .   S
    N615   O619      1.51681      .   S
    Zr48   O619      1.91720  1_565   S
    N620   O621      1.56460      .   S
    Zr95   O621      2.22315      .   S
    N620   O622      1.51677      .   S
    Zr89   O622      1.91726      .   S
    N620   O623      1.54431      .   S
    Zr90   O623      2.20362      .   S
    N620   O624      1.49485      .   S
    Zr93   O624      1.89479      .   S
    N625   O626      1.51494      .   S
    Zr33   O626      1.91440  1_554   S
    N625   O627      1.49458      .   S
    Zr37   O627      1.89446      .   S
    N625   O628      1.56462      .   S
    Zr38   O628      2.22274  1_455   S
    N625   O629      1.54422      .   S
    Zr35   O629      2.20175      .   S
    N630   O631      1.49486      .   S
    Zr92   O631      1.89480      .   S
    N630   O632      1.56462      .   S
    Zr94   O632      2.22317      .   S
    N630   O633      1.54435      .   S
    Zr91   O633      2.20375  1_655   S
    N630   O634      1.51676      .   S
    Zr88   O634      1.91725      .   S
    N635   O636      1.49485      .   S
    Zr53   O636      1.89475      .   S
    N635   O637      1.54418      .   S
    Zr51   O637      2.20222      .   S
    N635   O638      1.56471      .   S
    Zr54   O638      2.22330  1_455   S
    N635   O639      1.51679      .   S
    Zr49   O639      1.91718  1_565   S
