# CIF file generated by openbabel 2.4.90, see http://openbabel.sf.net
data_I
_chemical_name_common ''
_cell_length_a 18.343
_cell_length_b 19.757
_cell_length_c 19.757
_cell_angle_alpha 90
_cell_angle_beta 90
_cell_angle_gamma 89.999
_space_group_name_H-M_alt 'P 1'
_space_group_name_Hall 'P 1'
loop_
    _symmetry_equiv_pos_as_xyz
    x,y,z
loop_
    _atom_site_label
    _atom_site_type_symbol
    _atom_site_fract_x
    _atom_site_fract_y
    _atom_site_fract_z
    _atom_site_occupancy
    Zr0     Zr   0.38345   0.81542   0.64744   1.000
    Zr1     Zr   0.88344   0.81542   0.64743   1.000
    Zr2     Zr   0.38264   0.68535   0.87615   1.000
    Zr3     Zr   0.88264   0.68535   0.87615   1.000
    Zr4     Zr   0.38345   0.18460   0.35257   1.000
    Zr5     Zr   0.88344   0.18460   0.35250   1.000
    Zr6     Zr   0.38264   0.31467   0.12386   1.000
    Zr7     Zr   0.88264   0.31467   0.12386   1.000
    Zr8     Zr   0.38345   0.35258   0.81542   1.000
    Zr9     Zr   0.88344   0.35258   0.81542   1.000
    Zr10    Zr   0.38265   0.12386   0.68535   1.000
    Zr11    Zr   0.88264   0.12386   0.68535   1.000
    Zr12    Zr   0.38344   0.64744   0.18460   1.000
    Zr13    Zr   0.88344   0.64744   0.18400   1.000
    Zr14    Zr   0.38264   0.87616   0.31466   1.000
    Zr15    Zr   0.88263   0.87616   0.31466   1.000
    Zr16    Zr   0.13345   0.31541   0.85259   1.000
    Zr17    Zr   0.63345   0.31541   0.85250   1.000
    Zr18    Zr   0.13265   0.18534   0.62387   1.000
    Zr19    Zr   0.63264   0.18534   0.62387   1.000
    Zr20    Zr   0.13345   0.68461   0.14743   1.000
    Zr21    Zr   0.63344   0.68461   0.14743   1.000
    Zr22    Zr   0.13264   0.81468   0.37614   1.000
    Zr23    Zr   0.63264   0.81468   0.37614   1.000
    Zr24    Zr   0.13345   0.85259   0.68460   1.000
    Zr25    Zr   0.63344   0.85259   0.68460   1.000
    Zr26    Zr   0.13264   0.62387   0.81467   1.000
    Zr27    Zr   0.63264   0.62387   0.81467   1.000
    Zr28    Zr   0.13345   0.14743   0.31540   1.000
    Zr29    Zr   0.63344   0.14743   0.31541   1.000
    Zr30    Zr   0.13265   0.37615   0.18534   1.000
    Zr31    Zr   0.63264   0.37615   0.18534   1.000
    N32     N    0.89022   0.17683   0.04981   1.000
    N33     N    0.39021   0.95017   0.17682   1.000
    N34     N    0.14022   0.54983   0.67684   1.000
    N35     N    0.14022   0.32318   0.54982   1.000
    N36     N    0.89021   0.95018   0.17682   1.000
    N37     N    0.39022   0.82319   0.95016   1.000
    N38     N    0.64021   0.67684   0.45017   1.000
    N39     N    0.64022   0.32318   0.54982   1.000
    N40     N    0.64022   0.54983   0.67684   1.000
    N41     N    0.39022   0.17683   0.04982   1.000
    N42     N    0.14022   0.67684   0.45018   1.000
    N43     N    0.39022   0.04983   0.82318   1.000
    N44     N    0.64021   0.45019   0.32317   1.000
    N45     N    0.89021   0.82319   0.95016   1.000
    N46     N    0.14022   0.45019   0.32317   1.000
    N47     N    0.89022   0.04983   0.82318   1.000
    C48     C    0.56294   0.30809   0.03548   1.000
    O49     O    0.51084   0.31407   0.06985   1.000
    O50     O    0.57334   0.32944   0.08522   1.000
    O51     O    0.51309   0.26217   0.03717   1.000
    O52     O    0.58985   0.30994   0.97809   1.000
    C53     C    0.21110   0.77999   0.83725   1.000
    O54     O    0.18324   0.80879   0.79315   1.000
    O55     O    0.25984   0.74307   0.84960   1.000
    O56     O    0.19734   0.72770   0.83423   1.000
    O57     O    0.26360   0.79871   0.87538   1.000
    C58     C    0.95399   0.82563   0.77967   1.000
    O59     O    0.94698   0.82905   0.73792   1.000
    O60     O    0.00949   0.83834   0.74721   1.000
    O61     O    0.92269   0.78484   0.80816   1.000
    O62     O    0.92289   0.81736   0.75098   1.000
    O63     O    0.94662   0.82435   0.83471   1.000
    C64     C    0.06211   0.55030   0.18862   1.000
    O65     O    0.09220   0.49842   0.18562   1.000
    O66     O    0.00745   0.58563   0.18609   1.000
    O67     O    0.06995   0.59492   0.17695   1.000
    O68     O    0.07408   0.51769   0.23273   1.000
    C69     C    0.31211   0.05029   0.31138   1.000
    O70     O    0.31995   0.09491   0.32305   1.000
    O71     O    0.25745   0.08562   0.31376   1.000
    O72     O    0.32407   0.01763   0.26727   1.000
    O73     O    0.34220   0.99841   0.31438   1.000
    C74     C    0.95400   0.17439   0.22033   1.000
    O75     O    0.92269   0.21518   0.19185   1.000
    O76     O    0.92289   0.18266   0.24901   1.000
    O77     O    0.94662   0.17567   0.16529   1.000
    O78     O    0.94699   0.17097   0.26207   1.000
    O79     O    0.00949   0.16168   0.25279   1.000
    C80     C    0.71109   0.83729   0.22003   1.000
    O81     O    0.75983   0.84962   0.25695   1.000
    O82     O    0.69733   0.83425   0.27232   1.000
    O83     O    0.76360   0.87542   0.20131   1.000
    O84     O    0.68324   0.79317   0.19123   1.000
    C85     C    0.70400   0.32562   0.72035   1.000
    O86     O    0.67289   0.31735   0.74902   1.000
    O87     O    0.67269   0.28483   0.69186   1.000
    O88     O    0.69662   0.32434   0.66530   1.000
    O89     O    0.75949   0.33833   0.75281   1.000
    O90     O    0.69699   0.32904   0.76208   1.000
    C91     C    0.56210   0.81139   0.55029   1.000
    O92     O    0.59219   0.81440   0.49841   1.000
    O93     O    0.57407   0.76729   0.51768   1.000
    O94     O    0.56994   0.82307   0.59491   1.000
    O95     O    0.50744   0.81378   0.58562   1.000
    C96     C    0.06294   0.96454   0.30808   1.000
    O97     O    0.01309   0.96284   0.26217   1.000
    O98     O    0.08986   0.02191   0.30993   1.000
    O99     O    0.01084   0.93016   0.31407   1.000
    O100    O    0.07334   0.91479   0.32944   1.000
    C101    C    0.96108   0.72004   0.33727   1.000
    O102    O    0.94733   0.77233   0.33424   1.000
    O103    O    0.00983   0.75696   0.34961   1.000
    O104    O    0.93323   0.69124   0.29301   1.000
    O105    O    0.01360   0.70133   0.37541   1.000
    C106    C    0.20401   0.27967   0.32562   1.000
    O107    O    0.17270   0.30815   0.28483   1.000
    O108    O    0.17290   0.25097   0.31734   1.000
    O109    O    0.19663   0.33471   0.32434   1.000
    O110    O    0.25950   0.24720   0.33832   1.000
    O111    O    0.19700   0.23791   0.32903   1.000
    C112    C    0.81209   0.94973   0.68863   1.000
    O113    O    0.82407   0.98234   0.73274   1.000
    O114    O    0.84219   0.00161   0.68563   1.000
    O115    O    0.81994   0.90511   0.67695   1.000
    O116    O    0.75744   0.91440   0.68625   1.000
    C117    C    0.96109   0.66275   0.72004   1.000
    O118    O    0.01360   0.62461   0.70132   1.000
    O119    O    0.93323   0.70686   0.69123   1.000
    O120    O    0.94733   0.66578   0.77233   1.000
    O121    O    0.00983   0.65041   0.75696   1.000
    C122    C    0.31295   0.19192   0.53548   1.000
    O123    O    0.33986   0.19007   0.47810   1.000
    O124    O    0.26310   0.23784   0.53717   1.000
    O125    O    0.32335   0.17057   0.58523   1.000
    O126    O    0.26085   0.18594   0.56986   1.000
    C127    C    0.71109   0.77999   0.83728   1.000
    O128    O    0.68324   0.80879   0.79317   1.000
    O129    O    0.75983   0.74307   0.84962   1.000
    O130    O    0.69733   0.72770   0.83425   1.000
    O131    O    0.76360   0.79870   0.87540   1.000
    C132    C    0.45401   0.22035   0.82563   1.000
    O133    O    0.44700   0.26210   0.82904   1.000
    O134    O    0.50950   0.25281   0.83831   1.000
    O135    O    0.42290   0.24904   0.81735   1.000
    O136    O    0.42270   0.19186   0.78483   1.000
    O137    O    0.44663   0.16530   0.82435   1.000
    C138    C    0.56210   0.18863   0.44972   1.000
    O139    O    0.59220   0.18562   0.50160   1.000
    O140    O    0.56995   0.17695   0.40510   1.000
    O141    O    0.50745   0.18624   0.41439   1.000
    O142    O    0.57407   0.23273   0.48233   1.000
    C143    C    0.06210   0.81140   0.55027   1.000
    O144    O    0.06995   0.82307   0.59489   1.000
    O145    O    0.00744   0.81378   0.58559   1.000
    O146    O    0.07407   0.76729   0.51767   1.000
    O147    O    0.09219   0.81440   0.49840   1.000
    C148    C    0.71109   0.16274   0.77998   1.000
    O149    O    0.76360   0.12460   0.79870   1.000
    O150    O    0.75984   0.15040   0.74306   1.000
    O151    O    0.69734   0.16577   0.72769   1.000
    O152    O    0.68324   0.20685   0.80877   1.000
    C153    C    0.56210   0.55030   0.18862   1.000
    O154    O    0.59219   0.49842   0.18562   1.000
    O155    O    0.50744   0.58563   0.18624   1.000
    O156    O    0.56994   0.59492   0.17695   1.000
    O157    O    0.57407   0.51769   0.23273   1.000
    C158    C    0.70400   0.27967   0.32562   1.000
    O159    O    0.67269   0.30815   0.28482   1.000
    O160    O    0.67289   0.25097   0.31734   1.000
    O161    O    0.69662   0.33471   0.32433   1.000
    O162    O    0.75949   0.24720   0.33830   1.000
    O163    O    0.69699   0.23791   0.32903   1.000
    C164    C    0.21110   0.16274   0.77998   1.000
    O165    O    0.18325   0.20685   0.80879   1.000
    O166    O    0.25984   0.15040   0.74306   1.000
    O167    O    0.19734   0.16577   0.72769   1.000
    O168    O    0.26361   0.12460   0.79870   1.000
    C169    C    0.45400   0.77968   0.17437   1.000
    O170    O    0.44699   0.73792   0.17096   1.000
    O171    O    0.50949   0.74721   0.16167   1.000
    O172    O    0.42289   0.75098   0.18265   1.000
    O173    O    0.42269   0.80816   0.21517   1.000
    O174    O    0.44662   0.83471   0.17565   1.000
    C175    C    0.06295   0.30809   0.03548   1.000
    O176    O    0.01084   0.31407   0.06985   1.000
    O177    O    0.07334   0.32944   0.08522   1.000
    O178    O    0.08986   0.30994   0.97811   1.000
    O179    O    0.01309   0.26217   0.03716   1.000
    C180    C    0.20400   0.67439   0.27966   1.000
    O181    O    0.19663   0.67568   0.33470   1.000
    O182    O    0.25949   0.66169   0.24720   1.000
    O183    O    0.19699   0.67098   0.23791   1.000
    O184    O    0.17269   0.71519   0.30815   1.000
    O185    O    0.17289   0.68267   0.25097   1.000
    C186    C    0.21109   0.83729   0.22003   1.000
    O187    O    0.18324   0.79317   0.19123   1.000
    O188    O    0.25983   0.84962   0.25695   1.000
    O189    O    0.19733   0.83425   0.27232   1.000
    O190    O    0.26360   0.87542   0.20131   1.000
    C191    C    0.95400   0.22035   0.82547   1.000
    O192    O    0.92289   0.24904   0.81727   1.000
    O193    O    0.92269   0.19186   0.78476   1.000
    O194    O    0.94699   0.26210   0.82884   1.000
    O195    O    0.00949   0.25281   0.83813   1.000
    O196    O    0.94663   0.16530   0.82426   1.000
    C197    C    0.06211   0.44972   0.81139   1.000
    O198    O    0.07408   0.48234   0.76728   1.000
    O199    O    0.09220   0.50161   0.81440   1.000
    O200    O    0.00745   0.41439   0.81378   1.000
    O201    O    0.06995   0.40510   0.82307   1.000
    C202    C    0.71109   0.22003   0.16273   1.000
    O203    O    0.76360   0.20132   0.12459   1.000
    O204    O    0.75983   0.25695   0.15039   1.000
    O205    O    0.69733   0.27232   0.16576   1.000
    O206    O    0.68324   0.19123   0.20685   1.000
    C207    C    0.81209   0.68864   0.05012   1.000
    O208    O    0.75744   0.68625   0.08553   1.000
    O209    O    0.81994   0.67696   0.09468   1.000
    O210    O    0.84219   0.68563   0.99832   1.000
    O211    O    0.82407   0.73274   0.01747   1.000
    C212    C    0.46109   0.72004   0.33727   1.000
    O213    O    0.44733   0.77233   0.33424   1.000
    O214    O    0.50983   0.75696   0.34961   1.000
    O215    O    0.51360   0.70133   0.37541   1.000
    O216    O    0.43324   0.69124   0.29316   1.000
    C217    C    0.56294   0.69193   0.96453   1.000
    O218    O    0.58985   0.69008   0.02191   1.000
    O219    O    0.51084   0.68595   0.93016   1.000
    O220    O    0.57334   0.67058   0.91479   1.000
    O221    O    0.51309   0.73785   0.96283   1.000
    C222    C    0.20401   0.32562   0.72032   1.000
    O223    O    0.25950   0.33833   0.75280   1.000
    O224    O    0.19700   0.32904   0.76209   1.000
    O225    O    0.19663   0.32434   0.66529   1.000
    O226    O    0.17290   0.31735   0.74901   1.000
    O227    O    0.17270   0.28483   0.69183   1.000
    C228    C    0.20400   0.72035   0.67439   1.000
    O229    O    0.17269   0.69187   0.71518   1.000
    O230    O    0.17289   0.74905   0.68266   1.000
    O231    O    0.25949   0.75281   0.66168   1.000
    O232    O    0.19699   0.76211   0.67097   1.000
    O233    O    0.19663   0.66531   0.67567   1.000
    C234    C    0.81294   0.19192   0.53548   1.000
    O235    O    0.82334   0.17057   0.58523   1.000
    O236    O    0.76084   0.18594   0.56986   1.000
    O237    O    0.76309   0.23784   0.53717   1.000
    O238    O    0.83985   0.19007   0.47808   1.000
    C239    C    0.31210   0.94973   0.68864   1.000
    O240    O    0.31995   0.90511   0.67696   1.000
    O241    O    0.25745   0.91440   0.68625   1.000
    O242    O    0.34220   0.00161   0.68563   1.000
    O243    O    0.32407   0.98234   0.73274   1.000
    C244    C    0.45400   0.82563   0.77967   1.000
    O245    O    0.42269   0.78484   0.80816   1.000
    O246    O    0.42289   0.81736   0.75098   1.000
    O247    O    0.44699   0.82904   0.73792   1.000
    O248    O    0.50949   0.83834   0.74721   1.000
    O249    O    0.44662   0.82435   0.83471   1.000
    C250    C    0.96109   0.33728   0.27984   1.000
    O251    O    0.01360   0.37542   0.29857   1.000
    O252    O    0.94733   0.33424   0.22762   1.000
    O253    O    0.00983   0.34961   0.24299   1.000
    O254    O    0.93324   0.29316   0.30869   1.000
    C255    C    0.21110   0.22003   0.16273   1.000
    O256    O    0.26361   0.20132   0.12459   1.000
    O257    O    0.25984   0.25695   0.15039   1.000
    O258    O    0.19734   0.27232   0.16576   1.000
    O259    O    0.18325   0.19123   0.20684   1.000
    C260    C    0.56294   0.03548   0.69191   1.000
    O261    O    0.51084   0.06986   0.68593   1.000
    O262    O    0.57334   0.08523   0.67056   1.000
    O263    O    0.58985   0.97811   0.69007   1.000
    O264    O    0.51309   0.03717   0.73783   1.000
    C265    C    0.06295   0.03549   0.69191   1.000
    O266    O    0.01085   0.06986   0.68593   1.000
    O267    O    0.07335   0.08523   0.67056   1.000
    O268    O    0.01310   0.03717   0.73782   1.000
    O269    O    0.08986   0.97811   0.69007   1.000
    C270    C    0.31210   0.68864   0.05028   1.000
    O271    O    0.34219   0.68563   0.99840   1.000
    O272    O    0.25745   0.68625   0.08561   1.000
    O273    O    0.31995   0.67696   0.09491   1.000
    O274    O    0.32407   0.73274   0.01762   1.000
    C275    C    0.81210   0.05029   0.31138   1.000
    O276    O    0.82407   0.01763   0.26727   1.000
    O277    O    0.84219   0.99841   0.31438   1.000
    O278    O    0.81994   0.09491   0.32304   1.000
    O279    O    0.75745   0.08562   0.31376   1.000
    C280    C    0.95399   0.77968   0.17438   1.000
    O281    O    0.92288   0.75098   0.18251   1.000
    O282    O    0.92268   0.80816   0.21518   1.000
    O283    O    0.94698   0.73792   0.17082   1.000
    O284    O    0.00948   0.74721   0.16168   1.000
    O285    O    0.94662   0.83471   0.17566   1.000
    C286    C    0.31294   0.80810   0.46453   1.000
    O287    O    0.26309   0.76218   0.46284   1.000
    O288    O    0.33985   0.80995   0.52191   1.000
    O289    O    0.32334   0.82945   0.41478   1.000
    O290    O    0.26084   0.81408   0.43015   1.000
    C291    C    0.70400   0.67440   0.27966   1.000
    O292    O    0.67289   0.68267   0.25097   1.000
    O293    O    0.67269   0.71519   0.30815   1.000
    O294    O    0.75949   0.66169   0.24705   1.000
    O295    O    0.69699   0.67099   0.23791   1.000
    O296    O    0.69662   0.67568   0.33470   1.000
    C297    C    0.81294   0.53549   0.80809   1.000
    O298    O    0.82333   0.58523   0.82945   1.000
    O299    O    0.76084   0.56986   0.81408   1.000
    O300    O    0.83985   0.47811   0.80994   1.000
    O301    O    0.76309   0.53718   0.76218   1.000
    C302    C    0.06211   0.18863   0.44970   1.000
    O303    O    0.06995   0.17695   0.40508   1.000
    O304    O    0.00745   0.18624   0.41435   1.000
    O305    O    0.07408   0.23273   0.48232   1.000
    O306    O    0.09220   0.18562   0.50159   1.000
    C307    C    0.81294   0.46453   0.19190   1.000
    O308    O    0.76309   0.46284   0.23782   1.000
    O309    O    0.82333   0.41479   0.17056   1.000
    O310    O    0.76083   0.43016   0.18593   1.000
    O311    O    0.83985   0.52191   0.18991   1.000
    C312    C    0.45400   0.17439   0.22034   1.000
    O313    O    0.44699   0.17097   0.26209   1.000
    O314    O    0.50949   0.16168   0.25280   1.000
    O315    O    0.42270   0.21518   0.19185   1.000
    O316    O    0.42290   0.18266   0.24903   1.000
    O317    O    0.44663   0.17567   0.16530   1.000
    C318    C    0.56294   0.96454   0.30807   1.000
    O319    O    0.58985   0.02191   0.30993   1.000
    O320    O    0.51309   0.96284   0.26215   1.000
    O321    O    0.51083   0.93016   0.31406   1.000
    O322    O    0.57333   0.91479   0.32943   1.000
    C323    C    0.06295   0.69193   0.96453   1.000
    O324    O    0.07334   0.67058   0.91479   1.000
    O325    O    0.01084   0.68595   0.93016   1.000
    O326    O    0.08985   0.69008   0.02190   1.000
    O327    O    0.01309   0.73785   0.96283   1.000
    C328    C    0.46109   0.33728   0.27984   1.000
    O329    O    0.44734   0.33424   0.22762   1.000
    O330    O    0.50984   0.34961   0.24299   1.000
    O331    O    0.51360   0.37542   0.29857   1.000
    O332    O    0.43324   0.29316   0.30871   1.000
    C333    C    0.96109   0.27998   0.66274   1.000
    O334    O    0.94733   0.22769   0.66577   1.000
    O335    O    0.00983   0.24306   0.65040   1.000
    O336    O    0.01360   0.29869   0.62460   1.000
    O337    O    0.93324   0.30878   0.70686   1.000
    C338    C    0.46110   0.27998   0.66274   1.000
    O339    O    0.44734   0.22769   0.66577   1.000
    O340    O    0.50984   0.24306   0.65040   1.000
    O341    O    0.43324   0.30878   0.70686   1.000
    O342    O    0.51360   0.29869   0.62460   1.000
    C343    C    0.31294   0.46453   0.19190   1.000
    O344    O    0.33985   0.52191   0.19006   1.000
    O345    O    0.26309   0.46284   0.23782   1.000
    O346    O    0.32334   0.41479   0.17056   1.000
    O347    O    0.26084   0.43016   0.18593   1.000
    C348    C    0.70400   0.72036   0.67439   1.000
    O349    O    0.67269   0.69187   0.71519   1.000
    O350    O    0.67289   0.74905   0.68267   1.000
    O351    O    0.69662   0.66531   0.67568   1.000
    O352    O    0.75948   0.75282   0.66169   1.000
    O353    O    0.69699   0.76211   0.67098   1.000
    C354    C    0.31211   0.31138   0.94973   1.000
    O355    O    0.25745   0.31377   0.91440   1.000
    O356    O    0.31995   0.32306   0.90511   1.000
    O357    O    0.34220   0.31439   0.00161   1.000
    O358    O    0.32408   0.26728   0.98233   1.000
    C359    C    0.81293   0.80810   0.46453   1.000
    O360    O    0.76308   0.76218   0.46283   1.000
    O361    O    0.83984   0.80995   0.52191   1.000
    O362    O    0.82333   0.82945   0.41478   1.000
    O363    O    0.76083   0.81408   0.43015   1.000
    C364    C    0.81210   0.31138   0.94971   1.000
    O365    O    0.81995   0.32306   0.90509   1.000
    O366    O    0.75745   0.31377   0.91436   1.000
    O367    O    0.84219   0.31439   0.00160   1.000
    O368    O    0.82407   0.26728   0.98232   1.000
    C369    C    0.31294   0.53549   0.80807   1.000
    O370    O    0.26309   0.53718   0.76216   1.000
    O371    O    0.33986   0.47811   0.80993   1.000
    O372    O    0.32334   0.58523   0.82944   1.000
    O373    O    0.26084   0.56986   0.81407   1.000
    C374    C    0.56210   0.44972   0.81139   1.000
    O375    O    0.57407   0.48234   0.76728   1.000
    O376    O    0.59219   0.50161   0.81439   1.000
    O377    O    0.56995   0.40510   0.82304   1.000
    O378    O    0.50745   0.41439   0.81377   1.000
    C379    C    0.46109   0.66275   0.72004   1.000
    O380    O    0.51360   0.62461   0.70132   1.000
    O381    O    0.43324   0.70686   0.69124   1.000
    O382    O    0.44734   0.66578   0.77233   1.000
    O383    O    0.50983   0.65041   0.75696   1.000
loop_
    _geom_bond_atom_site_label_1
    _geom_bond_atom_site_label_2
    _geom_bond_distance
    _geom_bond_site_symmetry_2
    _ccdc_geom_bond_type
    C48    O49       1.17836      .   S
    Zr6    O49       2.58229      .   S
    C48    O50       1.08637      .   S
    Zr31   O50       2.43871      .   S
    C48    O51       1.28850      .   S
    N41    O51       2.82577      .   S
    C48    O52       1.23728  1_554   S
    Zr17   O52       2.60910      .   S
    C53    O54       1.15935      .   S
    Zr24   O54       2.48649      .   S
    C53    O55       1.17939      .   S
    Zr2    O55       2.57866      .   S
    C53    O56       1.06514      .   S
    Zr26   O56       2.40112      .   S
    C53    O57       1.27743      .   S
    N37    O57       2.79473      .   S
    C58    O59       0.83763      .   S
    Zr1    O59       2.15108      .   S
    C58    O60       1.22900  1_655   S
    Zr24   O60       2.60374      .   S
    C58    O61       1.13849      .   S
    Zr3    O61       2.49153      .   S
    C58    O62       0.82078      .   S
    Zr1    O62       2.17035      .   S
    C58    O63       1.09602      .   S
    N45    O63       2.50480      .   S
    C64    O65       1.16575      .   S
    Zr30   O65       2.52703      .   S
    C64    O66       1.22265      .   S
    Zr13   O66       2.58214  1_655   S
    C64    O67       0.92254      .   S
    Zr20   O67       2.19921      .   S
    C64    O68       1.10573      .   S
    N46    O68       2.53834      .   S
    C69    O70       0.92255      .   S
    Zr4    O70       2.19923      .   S
    C69    O71       1.22248      .   S
    Zr28   O71       2.58186      .   S
    C69    O72       1.10634      .   S
    N33    O72       2.53796  1_565   S
    C69    O73       1.16564  1_545   S
    Zr14   O73       2.52672      .   S
    C74    O75       1.13846      .   S
    Zr7    O75       2.49151      .   S
    C74    O76       0.82054      .   S
    Zr5    O76       2.16927      .   S
    C74    O77       1.09623      .   S
    N32    O77       2.50513      .   S
    C74    O78       0.83721      .   S
    Zr5    O78       2.15020      .   S
    C74    O79       1.22897  1_655   S
    Zr28   O79       2.60378      .   S
    C80    O81       1.17931      .   S
    Zr15   O81       2.57859      .   S
    C80    O82       1.06511      .   S
    Zr23   O82       2.40109      .   S
    C80    O83       1.27757      .   S
    N36    O83       2.79457      .   S
    C80    O84       1.15951      .   S
    Zr21   O84       2.48668      .   S
    C85    O86       0.82046      .   S
    Zr17   O86       2.16906      .   S
    C85    O87       1.13849      .   S
    Zr19   O87       2.49153      .   S
    C85    O88       1.09634      .   S
    N39    O88       2.50523      .   S
    C85    O89       1.22896      .   S
    Zr9    O89       2.60360      .   S
    C85    O90       0.83719      .   S
    Zr17   O90       2.14994      .   S
    C91    O92       1.16576      .   S
    Zr23   O92       2.52704      .   S
    C91    O93       1.10577      .   S
    N38    O93       2.53848      .   S
    C91    O94       0.92255      .   S
    Zr25   O94       2.19920      .   S
    C91    O95       1.22250      .   S
    Zr0    O95       2.58187      .   S
    C96    O97       1.28856      .   S
    N36    O97       2.82598  1_655   S
    C96    O98       1.23691  1_565   S
    Zr28   O98       2.60791      .   S
    C96    O99       1.17842      .   S
    Zr15   O99       2.58248  1_655   S
    C96    O100      1.08634      .   S
    Zr22   O100      2.43864      .   S
    C101   O102      1.06513      .   S
    Zr15   O102      2.40111      .   S
    C101   O103      1.17938  1_655   S
    Zr22   O103      2.57871      .   S
    C101   O104      1.16172      .   S
    Zr13   O104      2.49423      .   S
    C101   O105      1.27764  1_655   S
    N42    O105      2.79476      .   S
    C106   O107      1.13849      .   S
    Zr30   O107      2.49152      .   S
    C106   O108      0.82078      .   S
    Zr28   O108      2.17024      .   S
    C106   O109      1.09619      .   S
    N46    O109      2.50530      .   S
    C106   O110      1.22893      .   S
    Zr4    O110      2.60357      .   S
    C106   O111      0.83759      .   S
    Zr28   O111      2.15102      .   S
    C112   O113      1.10567      .   S
    N47    O113      2.53833  1_545   S
    C112   O114      1.16568  1_565   S
    Zr11   O114      2.52676      .   S
    C112   O115      0.92256      .   S
    Zr1    O115      2.19926      .   S
    C112   O116      1.22249      .   S
    Zr25   O116      2.58188      .   S
    C117   O118      1.27767  1_655   S
    N34    O118      2.79481      .   S
    C117   O119      1.15953      .   S
    Zr1    O119      2.48670      .   S
    C117   O120      1.06510      .   S
    Zr3    O120      2.40109      .   S
    C117   O121      1.17937  1_655   S
    Zr26   O121      2.57872      .   S
    C122   O123      1.23703      .   S
    Zr4    O123      2.60808      .   S
    C122   O124      1.28849      .   S
    N35    O124      2.82579      .   S
    C122   O125      1.08643      .   S
    Zr10   O125      2.43877      .   S
    C122   O126      1.17839      .   S
    Zr18   O126      2.58231      .   S
    C127   O128      1.15955      .   S
    Zr25   O128      2.48672      .   S
    C127   O129      1.17933      .   S
    Zr3    O129      2.57858      .   S
    C127   O130      1.06515      .   S
    Zr27   O130      2.40114      .   S
    C127   O131      1.27740      .   S
    N45    O131      2.79454      .   S
    C132   O133      0.83759      .   S
    Zr8    O133      2.15097      .   S
    C132   O134      1.22886      .   S
    Zr17   O134      2.60346      .   S
    C132   O135      0.82075      .   S
    Zr8    O135      2.17022      .   S
    C132   O136      1.13846      .   S
    Zr10   O136      2.49149      .   S
    C132   O137      1.09618      .   S
    N43    O137      2.50524      .   S
    C138   O139      1.16577      .   S
    Zr19   O139      2.52704      .   S
    C138   O140      0.92255      .   S
    Zr29   O140      2.19918      .   S
    C138   O141      1.22251      .   S
    Zr4    O141      2.58188      .   S
    C138   O142      1.10574      .   S
    N39    O142      2.53837      .   S
    C143   O144      0.92241      .   S
    Zr24   O144      2.19964      .   S
    C143   O145      1.22244      .   S
    Zr1    O145      2.58222  1_655   S
    C143   O146      1.10568      .   S
    N42    O146      2.53837      .   S
    C143   O147      1.16557      .   S
    Zr22   O147      2.52685      .   S
    C148   O149      1.27760      .   S
    N47    O149      2.79468      .   S
    C148   O150      1.17931      .   S
    Zr11   O150      2.57856      .   S
    C148   O151      1.06510      .   S
    Zr19   O151      2.40110      .   S
    C148   O152      1.15931      .   S
    Zr17   O152      2.48624      .   S
    C153   O154      1.16575      .   S
    Zr31   O154      2.52703      .   S
    C153   O155      1.22248      .   S
    Zr12   O155      2.58185      .   S
    C153   O156      0.92254      .   S
    Zr21   O156      2.19923      .   S
    C153   O157      1.10573      .   S
    N44    O157      2.53835      .   S
    C158   O159      1.13847      .   S
    Zr31   O159      2.49148      .   S
    C158   O160      0.82077      .   S
    Zr29   O160      2.17025      .   S
    C158   O161      1.09618      .   S
    N44    O161      2.50527      .   S
    C158   O162      1.22887      .   S
    Zr5    O162      2.60347      .   S
    C158   O163      0.83759      .   S
    Zr29   O163      2.15101      .   S
    C164   O165      1.15951      .   S
    Zr16   O165      2.48669      .   S
    C164   O166      1.17934      .   S
    Zr10   O166      2.57864      .   S
    C164   O167      1.06514      .   S
    Zr18   O167      2.40112      .   S
    C164   O168      1.27760      .   S
    N43    O168      2.79461      .   S
    C169   O170      0.83758      .   S
    Zr12   O170      2.15106      .   S
    C169   O171      1.22891      .   S
    Zr21   O171      2.60356      .   S
    C169   O172      0.82081      .   S
    Zr12   O172      2.17026      .   S
    C169   O173      1.13858      .   S
    Zr14   O173      2.49161      .   S
    C169   O174      1.09606      .   S
    N33    O174      2.50494      .   S
    C175   O176      1.17841      .   S
    Zr7    O176      2.58246  1_655   S
    C175   O177      1.08637      .   S
    Zr30   O177      2.43871      .   S
    C175   O178      1.23687  1_554   S
    Zr16   O178      2.60782      .   S
    C175   O179      1.28853      .   S
    N32    O179      2.82586  1_655   S
    C180   O181      1.09598      .   S
    N42    O181      2.50529      .   S
    C180   O182      1.22893      .   S
    Zr12   O182      2.60358      .   S
    C180   O183      0.83757      .   S
    Zr20   O183      2.15100      .   S
    C180   O184      1.13847      .   S
    Zr22   O184      2.49155      .   S
    C180   O185      0.82076      .   S
    Zr20   O185      2.17022      .   S
    C186   O187      1.15952      .   S
    Zr20   O187      2.48670      .   S
    C186   O188      1.17932      .   S
    Zr14   O188      2.57860      .   S
    C186   O189      1.06511      .   S
    Zr22   O189      2.40112      .   S
    C186   O190      1.27757      .   S
    N33    O190      2.79452      .   S
    C191   O192      0.82045      .   S
    Zr9    O192      2.17022      .   S
    C191   O193      1.13732      .   S
    Zr11   O193      2.49029      .   S
    C191   O194      0.83752      .   S
    Zr9    O194      2.15052      .   S
    C191   O195      1.22883  1_655   S
    Zr16   O195      2.60421      .   S
    C191   O196      1.09612      .   S
    N47    O196      2.50522      .   S
    C197   O198      1.10577      .   S
    N34    O198      2.53843      .   S
    C197   O199      1.16575      .   S
    Zr26   O199      2.52699      .   S
    C197   O200      1.22253      .   S
    Zr9    O200      2.58204  1_655   S
    C197   O201      0.92255      .   S
    Zr16   O201      2.19929      .   S
    C202   O203      1.27764      .   S
    N32    O203      2.79478      .   S
    C202   O204      1.17935      .   S
    Zr7    O204      2.57862      .   S
    C202   O205      1.06513      .   S
    Zr31   O205      2.40109      .   S
    C202   O206      1.15952      .   S
    Zr29   O206      2.48668      .   S
    C207   O208      1.22342      .   S
    Zr21   O208      2.58264      .   S
    C207   O209      0.92131      .   S
    Zr13   O209      2.19346      .   S
    C207   O210      1.16426  1_554   S
    Zr3    O210      2.52523      .   S
    C207   O211      1.10614      .   S
    N45    O211      2.53660  1_556   S
    C212   O213      1.06514      .   S
    Zr14   O213      2.40111      .   S
    C212   O214      1.17934      .   S
    Zr23   O214      2.57861      .   S
    C212   O215      1.27758      .   S
    N38    O215      2.79458      .   S
    C212   O216      1.15952      .   S
    Zr12   O216      2.48660      .   S
    C217   O218      1.23690  1_556   S
    Zr21   O218      2.60796      .   S
    C217   O219      1.17834      .   S
    Zr2    O219      2.58226      .   S
    C217   O220      1.08637      .   S
    Zr27   O220      2.43870      .   S
    C217   O221      1.28849      .   S
    N37    O221      2.82582      .   S
    C222   O223      1.22911      .   S
    Zr8    O223      2.60376      .   S
    C222   O224      0.83789      .   S
    Zr16   O224      2.15128      .   S
    C222   O225      1.09597      .   S
    N35    O225      2.50514      .   S
    C222   O226      0.82068      .   S
    Zr16   O226      2.17095      .   S
    C222   O227      1.13855      .   S
    Zr18   O227      2.49117      .   S
    C228   O229      1.13849      .   S
    Zr26   O229      2.49158      .   S
    C228   O230      0.82076      .   S
    Zr24   O230      2.17024      .   S
    C228   O231      1.22895      .   S
    Zr0    O231      2.60363      .   S
    C228   O232      0.83758      .   S
    Zr24   O232      2.15101      .   S
    C228   O233      1.09617      .   S
    N34    O233      2.50530      .   S
    C234   O235      1.08643      .   S
    Zr11   O235      2.43874      .   S
    C234   O236      1.17839      .   S
    Zr19   O236      2.58232      .   S
    C234   O237      1.28849      .   S
    N39    O237      2.82576      .   S
    C234   O238      1.23734      .   S
    Zr5    O238      2.60907      .   S
    C239   O240      0.92254      .   S
    Zr0    O240      2.19925      .   S
    C239   O241      1.22250      .   S
    Zr24   O241      2.58190      .   S
    C239   O242      1.16569  1_565   S
    Zr10   O242      2.52683      .   S
    C239   O243      1.10567      .   S
    N43    O243      2.53834  1_545   S
    C244   O245      1.13849      .   S
    Zr2    O245      2.49150      .   S
    C244   O246      0.82074      .   S
    Zr0    O246      2.17019      .   S
    C244   O247      0.83758      .   S
    Zr0    O247      2.15093      .   S
    C244   O248      1.22896      .   S
    Zr25   O248      2.60360      .   S
    C244   O249      1.09602      .   S
    N37    O249      2.50481      .   S
    C250   O251      1.27776  1_655   S
    N46    O251      2.79516      .   S
    C250   O252      1.06386      .   S
    Zr7    O252      2.40001      .   S
    C250   O253      1.17856  1_655   S
    Zr30   O253      2.57818      .   S
    C250   O254      1.15997      .   S
    Zr5    O254      2.48677      .   S
    C255   O256      1.27761      .   S
    N41    O256      2.79469      .   S
    C255   O257      1.17935      .   S
    Zr6    O257      2.57862      .   S
    C255   O258      1.06514      .   S
    Zr30   O258      2.40110      .   S
    C255   O259      1.15949      .   S
    Zr28   O259      2.48656      .   S
    C260   O261      1.17830      .   S
    Zr10   O261      2.58221      .   S
    C260   O262      1.08628      .   S
    Zr19   O262      2.43863      .   S
    C260   O263      1.23685  1_545   S
    Zr25   O263      2.60784      .   S
    C260   O264      1.28850      .   S
    N43    O264      2.82600      .   S
    C265   O266      1.17835      .   S
    Zr11   O266      2.58244  1_655   S
    C265   O267      1.08628      .   S
    Zr18   O267      2.43861      .   S
    C265   O268      1.28852      .   S
    N47    O268      2.82604  1_655   S
    C265   O269      1.23685  1_545   S
    Zr24   O269      2.60786      .   S
    C270   O271      1.16569  1_554   S
    Zr2    O271      2.52677      .   S
    C270   O272      1.22251      .   S
    Zr20   O272      2.58190      .   S
    C270   O273      0.92260      .   S
    Zr12   O273      2.19931      .   S
    C270   O274      1.10635      .   S
    N37    O274      2.53805  1_556   S
    C275   O276      1.10633      .   S
    N36    O276      2.53797  1_565   S
    C275   O277      1.16565  1_545   S
    Zr15   O277      2.52672      .   S
    C275   O278      0.92246      .   S
    Zr5    O278      2.19895      .   S
    C275   O279      1.22248      .   S
    Zr29   O279      2.58186      .   S
    C280   O281      0.82019      .   S
    Zr13   O281      2.17009      .   S
    C280   O282      1.13848      .   S
    Zr15   O282      2.49151      .   S
    C280   O283      0.83783      .   S
    Zr13   O283      2.14992      .   S
    C280   O284      1.22898  1_655   S
    Zr20   O284      2.60372      .   S
    C280   O285      1.09607      .   S
    N36    O285      2.50493      .   S
    C286   O287      1.28850      .   S
    N42    O287      2.82579      .   S
    C286   O288      1.23703      .   S
    Zr0    O288      2.60810      .   S
    C286   O289      1.08643      .   S
    Zr14   O289      2.43877      .   S
    C286   O290      1.17840      .   S
    Zr22   O290      2.58237      .   S
    C291   O292      0.82074      .   S
    Zr21   O292      2.17019      .   S
    C291   O293      1.13849      .   S
    Zr23   O293      2.49150      .   S
    C291   O294      1.23048      .   S
    Zr13   O294      2.60776      .   S
    C291   O295      0.83758      .   S
    Zr21   O295      2.15093      .   S
    C291   O296      1.09613      .   S
    N38    O296      2.50511      .   S
    C297   O298      1.08640      .   S
    Zr3    O298      2.43873      .   S
    C297   O299      1.17838      .   S
    Zr27   O299      2.58230      .   S
    C297   O300      1.23700      .   S
    Zr9    O300      2.60799      .   S
    C297   O301      1.28849      .   S
    N40    O301      2.82579      .   S
    C302   O303      0.92266      .   S
    Zr28   O303      2.19904      .   S
    C302   O304      1.22280      .   S
    Zr5    O304      2.58240  1_655   S
    C302   O305      1.10581      .   S
    N35    O305      2.53841      .   S
    C302   O306      1.16588      .   S
    Zr18   O306      2.52717      .   S
    C307   O308      1.28850      .   S
    N44    O308      2.82592      .   S
    C307   O309      1.08634      .   S
    Zr7    O309      2.43866      .   S
    C307   O310      1.17837      .   S
    Zr31   O310      2.58231      .   S
    C307   O311      1.23710      .   S
    Zr13   O311      2.60839      .   S
    C312   O313      0.83758      .   S
    Zr4    O313      2.15092      .   S
    C312   O314      1.22896      .   S
    Zr29   O314      2.60360      .   S
    C312   O315      1.13849      .   S
    Zr6    O315      2.49152      .   S
    C312   O316      0.82073      .   S
    Zr4    O316      2.17018      .   S
    C312   O317      1.09618      .   S
    N41    O317      2.50524      .   S
    C318   O319      1.23692  1_565   S
    Zr29   O319      2.60792      .   S
    C318   O320      1.28850      .   S
    N33    O320      2.82572      .   S
    C318   O321      1.17839      .   S
    Zr14   O321      2.58230      .   S
    C318   O322      1.08640      .   S
    Zr23   O322      2.43874      .   S
    C323   O324      1.08637      .   S
    Zr26   O324      2.43869      .   S
    C323   O325      1.17840      .   S
    Zr3    O325      2.58245  1_655   S
    C323   O326      1.23689  1_556   S
    Zr20   O326      2.60795      .   S
    C323   O327      1.28851      .   S
    N45    O327      2.82591  1_655   S
    C328   O329      1.06386      .   S
    Zr6    O329      2.40001      .   S
    C328   O330      1.17852      .   S
    Zr31   O330      2.57802      .   S
    C328   O331      1.27770      .   S
    N44    O331      2.79506      .   S
    C328   O332      1.16014      .   S
    Zr4    O332      2.48712      .   S
    C333   O334      1.06515      .   S
    Zr11   O334      2.40114      .   S
    C333   O335      1.17939  1_655   S
    Zr18   O335      2.57877      .   S
    C333   O336      1.27770  1_655   S
    N35    O336      2.79486      .   S
    C333   O337      1.15953      .   S
    Zr9    O337      2.48669      .   S
    C338   O339      1.06514      .   S
    Zr10   O339      2.40110      .   S
    C338   O340      1.17934      .   S
    Zr19   O340      2.57860      .   S
    C338   O341      1.15952      .   S
    Zr8    O341      2.48667      .   S
    C338   O342      1.27763      .   S
    N39    O342      2.79475      .   S
    C343   O344      1.23700      .   S
    Zr12   O344      2.60799      .   S
    C343   O345      1.28851      .   S
    N46    O345      2.82594      .   S
    C343   O346      1.08634      .   S
    Zr6    O346      2.43866      .   S
    C343   O347      1.17837      .   S
    Zr30   O347      2.58232      .   S
    C348   O349      1.13847      .   S
    Zr27   O349      2.49148      .   S
    C348   O350      0.82076      .   S
    Zr25   O350      2.17023      .   S
    C348   O351      1.09618      .   S
    N40    O351      2.50528      .   S
    C348   O352      1.22895      .   S
    Zr1    O352      2.60360      .   S
    C348   O353      0.83759      .   S
    Zr25   O353      2.15099      .   S
    C354   O355      1.22249      .   S
    Zr16   O355      2.58184      .   S
    C354   O356      0.92255      .   S
    Zr8    O356      2.19921      .   S
    C354   O357      1.16567  1_556   S
    Zr6    O357      2.52674      .   S
    C354   O358      1.10565      .   S
    N41    O358      2.53827  1_554   S
    C359   O360      1.28849      .   S
    N38    O360      2.82579      .   S
    C359   O361      1.23698      .   S
    Zr1    O361      2.60795      .   S
    C359   O362      1.08643      .   S
    Zr15   O362      2.43876      .   S
    C359   O363      1.17839      .   S
    Zr23   O363      2.58229      .   S
    C364   O365      0.92263      .   S
    Zr9    O365      2.19885      .   S
    C364   O366      1.22278      .   S
    Zr17   O366      2.58226      .   S
    C364   O367      1.16581  1_556   S
    Zr7    O367      2.52690      .   S
    C364   O368      1.10576      .   S
    N32    O368      2.53834  1_554   S
    C369   O370      1.28847      .   S
    N34    O370      2.82561      .   S
    C369   O371      1.23701      .   S
    Zr8    O371      2.60803      .   S
    C369   O372      1.08649      .   S
    Zr2    O372      2.43881      .   S
    C369   O373      1.17840      .   S
    Zr26   O373      2.58233      .   S
    C374   O375      1.10575      .   S
    N40    O375      2.53842      .   S
    C374   O376      1.16575      .   S
    Zr27   O376      2.52703      .   S
    C374   O377      0.92244      .   S
    Zr17   O377      2.19892      .   S
    C374   O378      1.22248      .   S
    Zr8    O378      2.58186      .   S
    C379   O380      1.27761      .   S
    N40    O380      2.79469      .   S
    C379   O381      1.15949      .   S
    Zr0    O381      2.48662      .   S
    C379   O382      1.06510      .   S
    Zr2    O382      2.40108      .   S
    C379   O383      1.17932      .   S
    Zr27   O383      2.57860      .   S
