# CIF file generated by openbabel 2.4.90, see http://openbabel.sf.net
data_I
_chemical_name_common ''
_cell_length_a 14.614
_cell_length_b 18.285
_cell_length_c 18.361
_cell_angle_alpha 112.518
_cell_angle_beta 105.626
_cell_angle_gamma 105.429
_space_group_name_H-M_alt 'P 1'
_space_group_name_Hall 'P 1'
loop_
    _symmetry_equiv_pos_as_xyz
    x,y,z
loop_
    _atom_site_label
    _atom_site_type_symbol
    _atom_site_fract_x
    _atom_site_fract_y
    _atom_site_fract_z
    _atom_site_occupancy
    Cd0     Cd   0.85391   0.76158   0.39133   1.000
    Cd1     Cd   0.46053   0.60617   0.36660   1.000
    Cd2     Cd   0.90765   0.36756   0.76501   1.000
    Cd3     Cd   0.14607   0.23847   0.60865   1.000
    Cd4     Cd   0.53945   0.39388   0.63338   1.000
    Cd5     Cd   0.09232   0.63249   0.23497   1.000
