# CIF file generated by openbabel 2.4.90, see http://openbabel.sf.net
data_I
_chemical_name_common ''
_cell_length_a 14.614
_cell_length_b 18.285
_cell_length_c 18.361
_cell_angle_alpha 112.518
_cell_angle_beta 105.626
_cell_angle_gamma 105.429
_space_group_name_H-M_alt 'P 1'
_space_group_name_Hall 'P 1'
loop_
    _symmetry_equiv_pos_as_xyz
    x,y,z
loop_
    _atom_site_label
    _atom_site_type_symbol
    _atom_site_fract_x
    _atom_site_fract_y
    _atom_site_fract_z
    _atom_site_occupancy
    N0      N    0.33742   0.01355   0.45503   1.000
    N1      N    0.88168   0.54403   0.55859   1.000
    N2      N    0.66255   0.98649   0.54495   1.000
    N3      N    0.32406   0.44279   0.98672   1.000
    N4      N    0.11829   0.45602   0.44139   1.000
    N5      N    0.67591   0.55726   0.01326   1.000
    Zr6     Zr   0.09232   0.63249   0.23497   1.000
    O7      O    0.16345   0.58051   0.16402   1.000
    Zr8     Zr   0.14607   0.23847   0.60865   1.000
    O9      O    0.00302   0.16666   0.58841   1.000
    Zr10    Zr   0.53945   0.39388   0.63338   1.000
    O11     O    0.41638   0.41385   0.58068   1.000
    Zr12    Zr   0.46053   0.60617   0.36660   1.000
    O13     O    0.58359   0.58619   0.41929   1.000
    Zr14    Zr   0.85390   0.76158   0.39133   1.000
    O15     O    0.99695   0.83339   0.41157   1.000
    Zr16    Zr   0.90765   0.36756   0.76501   1.000
    O17     O    0.83652   0.41954   0.83595   1.000
    O18     O    0.14829   0.30401   0.56361   1.000
    O19     O    0.20078   0.29195   0.71684   1.000
    O20     O    0.79919   0.70810   0.28314   1.000
    O21     O    0.85168   0.69604   0.43637   1.000
    O22     O    0.58582   0.43770   0.74257   1.000
    O23     O    0.48543   0.28522   0.57747   1.000
    O24     O    0.41415   0.56235   0.25741   1.000
    O25     O    0.51455   0.71483   0.42250   1.000
    O26     O    0.90890   0.42306   0.71099   1.000
    O27     O    0.84445   0.25810   0.69884   1.000
    O28     O    0.09107   0.57698   0.28899   1.000
    O29     O    0.15552   0.74194   0.30113   1.000
loop_
    _geom_bond_atom_site_label_1
    _geom_bond_atom_site_label_2
    _geom_bond_distance
    _geom_bond_site_symmetry_2
    _ccdc_geom_bond_type
    Zr6    O7        1.99694      .   S
    N3     O7        4.84051  1_556   S
    Zr8    O9        1.99483      .   S
    N2     O9        4.83447  1_665   S
    Zr10   O11       1.99674      .   S
    N4     O11       4.83820      .   S
    Zr12   O13       1.99674      .   S
    N1     O13       4.83818      .   S
    Zr14   O15       1.99482      .   S
    N0     O15       4.83445  1_445   S
    Zr16   O17       1.99695      .   S
    N5     O17       4.84053  1_554   S
    Zr8    O18       1.69530      .   S
    N4     O18       4.22487      .   S
    Zr8    O19       1.66803      .   S
    N3     O19       4.18155      .   S
    Zr14   O20       1.66803      .   S
    N5     O20       4.18154      .   S
    Zr14   O21       1.69530      .   S
    N1     O21       4.22486      .   S
    Zr10   O22       1.69392      .   S
    N5     O22       4.22333  1_554   S
    Zr10   O23       1.67070      .   S
    N0     O23       4.18534      .   S
    Zr12   O24       1.69390      .   S
    N3     O24       4.22329  1_556   S
    Zr12   O25       1.67069      .   S
    N2     O25       4.18533      .   S
    Zr16   O26       1.66890      .   S
    N1     O26       4.18205      .   S
    Zr16   O27       1.69821      .   S
    N2     O27       4.23038  1_565   S
    Zr6    O28       1.66889      .   S
    N4     O28       4.18205      .   S
    Zr6    O29       1.69821      .   S
    N0     O29       4.23038  1_545   S
