# CIF file generated by openbabel 2.4.90, see http://openbabel.sf.net
data_I
_chemical_name_common ''
_cell_length_a 14.614
_cell_length_b 18.285
_cell_length_c 18.361
_cell_angle_alpha 112.518
_cell_angle_beta 105.626
_cell_angle_gamma 105.429
_space_group_name_H-M_alt 'P 1'
_space_group_name_Hall 'P 1'
loop_
    _symmetry_equiv_pos_as_xyz
    x,y,z
loop_
    _atom_site_label
    _atom_site_type_symbol
    _atom_site_fract_x
    _atom_site_fract_y
    _atom_site_fract_z
    _atom_site_occupancy
    N0      N    0.33742   0.01355   0.45503   1.000
    N1      N    0.88168   0.54403   0.55859   1.000
    N2      N    0.66255   0.98649   0.54495   1.000
    N3      N    0.32406   0.44279   0.98672   1.000
    N4      N    0.11829   0.45602   0.44139   1.000
    N5      N    0.91971   0.95932   0.62034   1.000
    N6      N    0.95413   0.66206   0.03496   1.000
    N7      N    0.70545   0.62300   0.66054   1.000
    N8      N    0.04584   0.33799   0.96502   1.000
    N9      N    0.29452   0.37705   0.33944   1.000
    N10     N    0.67591   0.55726   0.01326   1.000
    N11     N    0.08026   0.04073   0.37963   1.000
    Zr12    Zr   0.09232   0.63249   0.23497   1.000
    O13     O    0.04778   0.64260   0.17022   1.000
    O14     O    0.16345   0.58051   0.16402   1.000
    O15     O    0.08134   0.57190   0.27862   1.000
    O16     O    0.10080   0.58206   0.29936   1.000
    O17     O    0.16816   0.74659   0.30246   1.000
    O18     O    0.14288   0.73729   0.29981   1.000
    Zr19    Zr   0.14607   0.23847   0.60865   1.000
    O20     O    0.12460   0.17443   0.53400   1.000
    O21     O    0.20129   0.30231   0.72199   1.000
    O22     O    0.20026   0.28159   0.71169   1.000
    O23     O    0.13693   0.30530   0.56023   1.000
    O24     O    0.15966   0.30273   0.56698   1.000
    O25     O    0.00302   0.16666   0.58841   1.000
    Zr26    Zr   0.53945   0.39388   0.63338   1.000
    O27     O    0.41638   0.41385   0.58068   1.000
    O28     O    0.57785   0.44110   0.74712   1.000
    O29     O    0.59379   0.43429   0.73801   1.000
    O30     O    0.48067   0.27974   0.58247   1.000
    O31     O    0.49018   0.29069   0.57248   1.000
    O32     O    0.59354   0.46862   0.64274   1.000
    Zr33    Zr   0.46053   0.60617   0.36660   1.000
    O34     O    0.42212   0.55895   0.25285   1.000
    O35     O    0.40618   0.56576   0.26197   1.000
    O36     O    0.58359   0.58619   0.41929   1.000
    O37     O    0.40643   0.53143   0.35723   1.000
    O38     O    0.50979   0.70935   0.42749   1.000
    O39     O    0.51930   0.72031   0.41751   1.000
    Zr40    Zr   0.85390   0.76158   0.39133   1.000
    O41     O    0.79868   0.69774   0.27799   1.000
    O42     O    0.84031   0.69732   0.43299   1.000
    O43     O    0.87537   0.82562   0.46597   1.000
    O44     O    0.99695   0.83339   0.41157   1.000
    O45     O    0.79971   0.71846   0.28829   1.000
    O46     O    0.86304   0.69475   0.43974   1.000
    Zr47    Zr   0.90765   0.36756   0.76501   1.000
    O48     O    0.83652   0.41954   0.83595   1.000
    O49     O    0.91863   0.42814   0.72136   1.000
    O50     O    0.95219   0.35745   0.82976   1.000
    O51     O    0.89917   0.41798   0.70061   1.000
    O52     O    0.83180   0.25345   0.69752   1.000
    O53     O    0.85709   0.26276   0.70017   1.000
loop_
    _geom_bond_atom_site_label_1
    _geom_bond_atom_site_label_2
    _geom_bond_distance
    _geom_bond_site_symmetry_2
    _ccdc_geom_bond_type
    Zr12   O13       1.29869      .   S
    N6     O13       2.69675  1_655   S
    Zr12   O14       1.99694      .   S
    N3     O14       4.84051  1_556   S
    Zr12   O15       1.59691      .   S
    N4     O15       4.27824      .   S
    Zr12   O16       1.75504      .   S
    N4     O16       4.09092      .   S
    Zr12   O17       1.77947      .   S
    N0     O17       4.14271  1_545   S
    Zr12   O18       1.63113      .   S
    N0     O18       4.32312  1_545   S
    Zr19   O20       1.30059      .   S
    N11    O20       2.70015      .   S
    Zr19   O21       1.75448      .   S
    N3     O21       4.09016      .   S
    Zr19   O22       1.59577      .   S
    N3     O22       4.27801      .   S
    Zr19   O23       1.77652      .   S
    N4     O23       4.13724      .   S
    Zr19   O24       1.62829      .   S
    N4     O24       4.31758      .   S
    Zr19   O25       1.99483      .   S
    N2     O25       4.83447  1_665   S
    Zr26   O27       1.99674      .   S
    N4     O27       4.83820      .   S
    Zr26   O28       1.77534      .   S
    N10    O28       4.13539  1_554   S
    Zr26   O29       1.62666      .   S
    N10    O29       4.31633  1_554   S
    Zr26   O30       1.75688      .   S
    N0     O30       4.09433      .   S
    Zr26   O31       1.59872      .   S
    N0     O31       4.28144      .   S
    Zr26   O32       1.30160      .   S
    N7     O32       2.70169      .   S
    Zr33   O34       1.77532      .   S
    N3     O34       4.13535  1_556   S
    Zr33   O35       1.62664      .   S
    N3     O35       4.31629  1_556   S
    Zr33   O36       1.99674      .   S
    N1     O36       4.83818      .   S
    Zr33   O37       1.30160      .   S
    N9     O37       2.70169      .   S
    Zr33   O38       1.59871      .   S
    N2     O38       4.28142      .   S
    Zr33   O39       1.75686      .   S
    N2     O39       4.09431      .   S
    Zr40   O41       1.75448      .   S
    N10    O41       4.09015      .   S
    Zr40   O42       1.62829      .   S
    N1     O42       4.31757      .   S
    Zr40   O43       1.30059      .   S
    N5     O43       2.70014      .   S
    Zr40   O44       1.99482      .   S
    N0     O44       4.83445  1_445   S
    Zr40   O45       1.59577      .   S
    N10    O45       4.27799      .   S
    Zr40   O46       1.77652      .   S
    N1     O46       4.13723      .   S
    Zr47   O48       1.99695      .   S
    N10    O48       4.84053  1_554   S
    Zr47   O49       1.59692      .   S
    N1     O49       4.27824      .   S
    Zr47   O50       1.29871      .   S
    N8     O50       2.69678  1_455   S
    Zr47   O51       1.75504      .   S
    N1     O51       4.09093      .   S
    Zr47   O52       1.77947      .   S
    N2     O52       4.14272  1_565   S
    Zr47   O53       1.63112      .   S
    N2     O53       4.32312  1_565   S
