# CIF file generated by openbabel 2.4.90, see http://openbabel.sf.net
data_I
_chemical_name_common 'CdH11C17N3O4'
_cell_length_a 14.614
_cell_length_b 18.285
_cell_length_c 18.361
_cell_angle_alpha 112.518
_cell_angle_beta 105.626
_cell_angle_gamma 105.429
_space_group_name_H-M_alt 'P 1'
_space_group_name_Hall 'P 1'
loop_
    _symmetry_equiv_pos_as_xyz
    x,y,z
loop_
    _atom_site_label
    _atom_site_type_symbol
    _atom_site_fract_x
    _atom_site_fract_y
    _atom_site_fract_z
    _atom_site_occupancy
    Cd0     Cd   0.09232   0.63249   0.23497   1.000
    Cd1     Cd   0.85391   0.76158   0.39133   1.000
    Cd2     Cd   0.46053   0.60617   0.36660   1.000
    Cd3     Cd   0.90765   0.36756   0.76501   1.000
    Cd4     Cd   0.14607   0.23847   0.60865   1.000
    Cd5     Cd   0.53945   0.39388   0.63338   1.000
    H6      H    0.19127   0.95750   0.47431   1.000
    H7      H    0.43919   0.94056   0.39139   1.000
    H8      H    0.33291   0.78057   0.30127   1.000
    H9      H    0.44678   0.07510   0.40341   1.000
    H10     H    0.33467   0.07493   0.60041   1.000
    H11     H    0.42090   0.23477   0.67580   1.000
    H12     H    0.93612   0.71879   0.17911   1.000
    H13     H    0.84339   0.73589   0.05440   1.000
    H14     H    0.87081   0.67367   0.91793   1.000
    H15     H    0.99269   0.59693   0.91372   1.000
    H16     H    0.08105   0.58978   0.04501   1.000
    H17     H    0.71583   0.52362   0.48352   1.000
    H18     H    0.04686   0.60749   0.54740   1.000
    H19     H    0.02910   0.69620   0.47432   1.000
    H20     H    0.04327   0.59757   0.67129   1.000
    H21     H    0.73437   0.39776   0.47817   1.000
    H22     H    0.74661   0.32364   0.56506   1.000
    H23     H    0.75428   0.81672   0.53243   1.000
    H24     H    0.78899   0.93972   0.67406   1.000
    H25     H    0.95602   0.07481   0.74884   1.000
    H26     H    0.08244   0.07955   0.67730   1.000
    H27     H    0.03630   0.94960   0.53853   1.000
    H28     H    0.23234   0.51755   0.03970   1.000
    H29     H    0.49928   0.45287   0.06147   1.000
    H30     H    0.55359   0.52457   0.22122   1.000
    H31     H    0.37372   0.33041   0.92948   1.000
    H32     H    0.25655   0.52376   0.92035   1.000
    H33     H    0.18365   0.43827   0.76136   1.000
    H34     H    0.21845   0.46438   0.28069   1.000
    H35     H    0.11004   0.32338   0.26564   1.000
    H36     H    0.20088   0.24918   0.32983   1.000
    H37     H    0.39920   0.32076   0.40614   1.000
    H38     H    0.49334   0.45852   0.41119   1.000
    H39     H    0.80870   0.04254   0.52567   1.000
    H40     H    0.56078   0.05948   0.60858   1.000
    H41     H    0.66706   0.21948   0.69870   1.000
    H42     H    0.55319   0.92495   0.59656   1.000
    H43     H    0.66529   0.92512   0.39956   1.000
    H44     H    0.57907   0.76528   0.32417   1.000
    H45     H    0.06385   0.28126   0.82087   1.000
    H46     H    0.15659   0.26416   0.94559   1.000
    H47     H    0.12916   0.32638   0.08205   1.000
    H48     H    0.00728   0.40311   0.08626   1.000
    H49     H    0.91892   0.41026   0.95496   1.000
    H50     H    0.28415   0.47643   0.51646   1.000
    H51     H    0.95312   0.39257   0.45258   1.000
    H52     H    0.97087   0.30385   0.52565   1.000
    H53     H    0.95671   0.40247   0.32868   1.000
    H54     H    0.26561   0.60229   0.52180   1.000
    H55     H    0.25336   0.67641   0.43491   1.000
    H56     H    0.24569   0.18333   0.46754   1.000
    H57     H    0.21098   0.06032   0.32591   1.000
    H58     H    0.04395   0.92524   0.25113   1.000
    H59     H    0.91752   0.92050   0.32267   1.000
    H60     H    0.96366   0.05045   0.46143   1.000
    H61     H    0.76763   0.48250   0.96028   1.000
    H62     H    0.50070   0.54719   0.93850   1.000
    H63     H    0.44639   0.47549   0.77876   1.000
    H64     H    0.62624   0.66964   0.07050   1.000
    H65     H    0.74342   0.47629   0.07963   1.000
    H66     H    0.81631   0.56178   0.23862   1.000
    H67     H    0.78153   0.53567   0.71928   1.000
    H68     H    0.88993   0.67667   0.73433   1.000
    H69     H    0.79910   0.75087   0.67015   1.000
    H70     H    0.60077   0.67929   0.59383   1.000
    H71     H    0.50664   0.54152   0.58878   1.000
    C72     C    0.17076   0.83216   0.38314   1.000
    C73     C    0.22683   0.92159   0.43779   1.000
    C74     C    0.32447   0.96379   0.44119   1.000
    C75     C    0.36325   0.91207   0.39081   1.000
    C76     C    0.30410   0.82265   0.33995   1.000
    C77     C    0.06109   0.78665   0.37303   1.000
    C78     C    0.48168   0.19740   0.50870   1.000
    C79     C    0.43783   0.10664   0.46318   1.000
    C80     C    0.38089   0.05957   0.49314   1.000
    C81     C    0.37591   0.10655   0.57194   1.000
    C82     C    0.42404   0.19694   0.61485   1.000
    C83     C    0.53964   0.24970   0.47443   1.000
    C84     C    0.94713   0.69433   0.11930   1.000
    C85     C    0.89565   0.70320   0.04951   1.000
    C86     C    0.91104   0.66841   0.97387   1.000
    C87     C    0.97789   0.62636   0.97086   1.000
    C88     C    0.02726   0.62109   0.04386   1.000
    C89     C    0.78528   0.61389   0.44621   1.000
    C90     C    0.78761   0.56007   0.48298   1.000
    C91     C    0.88240   0.55739   0.52214   1.000
    C92     C    0.97116   0.60756   0.51924   1.000
    C93     C    0.96197   0.65757   0.47883   1.000
    C94     C    0.68524   0.62343   0.41025   1.000
    C95     C    0.97383   0.49255   0.69117   1.000
    C96     C    0.97492   0.53738   0.64446   1.000
    C97     C    0.88775   0.50625   0.56773   1.000
    C98     C    0.80435   0.42708   0.53777   1.000
    C99     C    0.81026   0.38489   0.58664   1.000
    C100    C    0.06592   0.52807   0.77757   1.000
    C101    C    0.82640   0.87588   0.56795   1.000
    C102    C    0.84630   0.94470   0.64655   1.000
    C103    C    0.93907   0.01958   0.68770   1.000
    C104    C    0.00912   0.02283   0.64909   1.000
    C105    C    0.98379   0.95075   0.57083   1.000
    C106    C    0.33834   0.55368   0.16620   1.000
    C107    C    0.30439   0.51761   0.07667   1.000
    C108    C    0.36023   0.47860   0.03589   1.000
    C109    C    0.45151   0.48087   0.08889   1.000
    C110    C    0.48220   0.52052   0.17819   1.000
    C111    C    0.27425   0.58971   0.21069   1.000
    C112    C    0.28549   0.31168   0.80547   1.000
    C113    C    0.33214   0.35753   0.89595   1.000
    C114    C    0.32078   0.43386   0.94033   1.000
    C115    C    0.26754   0.46437   0.89102   1.000
    C116    C    0.22559   0.41629   0.80108   1.000
    C117    C    0.29287   0.22601   0.75592   1.000
    C118    C    0.25451   0.42906   0.30598   1.000
    C119    C    0.19492   0.35083   0.29824   1.000
    C120    C    0.24576   0.30999   0.33410   1.000
    C121    C    0.35452   0.34856   0.37596   1.000
    C122    C    0.40838   0.42640   0.38005   1.000
    C123    C    0.82921   0.16788   0.61683   1.000
    C124    C    0.77313   0.07845   0.56219   1.000
    C125    C    0.67550   0.03626   0.55879   1.000
    C126    C    0.63672   0.08797   0.60916   1.000
    C127    C    0.69586   0.17740   0.66002   1.000
    C128    C    0.93888   0.21340   0.62695   1.000
    C129    C    0.51829   0.80265   0.49128   1.000
    C130    C    0.56214   0.89341   0.53680   1.000
    C131    C    0.61908   0.94048   0.50683   1.000
    C132    C    0.62406   0.89350   0.42803   1.000
    C133    C    0.57592   0.80311   0.38512   1.000
    C134    C    0.46033   0.75034   0.52554   1.000
    C135    C    0.05284   0.30572   0.88068   1.000
    C136    C    0.10433   0.29685   0.95047   1.000
    C137    C    0.08894   0.33164   0.02611   1.000
    C138    C    0.02208   0.37368   0.02911   1.000
    C139    C    0.97271   0.37896   0.95611   1.000
    C140    C    0.21469   0.38616   0.55376   1.000
    C141    C    0.21237   0.43997   0.51699   1.000
    C142    C    0.11757   0.44266   0.47783   1.000
    C143    C    0.02881   0.39248   0.48072   1.000
    C144    C    0.03800   0.34248   0.52115   1.000
    C145    C    0.31474   0.37662   0.58973   1.000
    C146    C    0.02614   0.50750   0.30881   1.000
    C147    C    0.02505   0.46267   0.35552   1.000
    C148    C    0.11223   0.49379   0.43225   1.000
    C149    C    0.19562   0.57296   0.46221   1.000
    C150    C    0.18971   0.61516   0.41333   1.000
    C151    C    0.93405   0.47198   0.22241   1.000
    C152    C    0.17356   0.12417   0.43202   1.000
    C153    C    0.15367   0.05534   0.35342   1.000
    C154    C    0.06089   0.98046   0.31228   1.000
    C155    C    0.99084   0.97722   0.35088   1.000
    C156    C    0.01617   0.04930   0.42913   1.000
    C157    C    0.66163   0.44637   0.83378   1.000
    C158    C    0.69558   0.48245   0.92331   1.000
    C159    C    0.63974   0.52146   0.96409   1.000
    C160    C    0.54847   0.51919   0.91109   1.000
    C161    C    0.51778   0.47954   0.82179   1.000
    C162    C    0.72572   0.41033   0.78929   1.000
    C163    C    0.71447   0.68837   0.19451   1.000
    C164    C    0.66782   0.64252   0.10402   1.000
    C165    C    0.67919   0.56619   0.05964   1.000
    C166    C    0.73243   0.53568   0.10895   1.000
    C167    C    0.77438   0.58376   0.19889   1.000
    C168    C    0.70710   0.77404   0.24406   1.000
    C169    C    0.74547   0.57098   0.69399   1.000
    C170    C    0.80505   0.64922   0.70173   1.000
    C171    C    0.75422   0.69006   0.66588   1.000
    C172    C    0.64545   0.65149   0.62401   1.000
    C173    C    0.59160   0.57364   0.61992   1.000
    N174    N    0.20889   0.78320   0.33476   1.000
    N175    N    0.47328   0.24141   0.58278   1.000
    N176    N    0.01240   0.65421   0.11699   1.000
    N177    N    0.87144   0.66207   0.44413   1.000
    N178    N    0.89174   0.41801   0.66271   1.000
    N179    N    0.89405   0.87840   0.53044   1.000
    N180    N    0.42621   0.55513   0.21639   1.000
    N181    N    0.23188   0.34052   0.75927   1.000
    N182    N    0.35977   0.46647   0.34597   1.000
    N183    N    0.79107   0.21684   0.66522   1.000
    N184    N    0.52668   0.75863   0.41719   1.000
    N185    N    0.98758   0.34583   0.88298   1.000
    N186    N    0.12853   0.33799   0.55586   1.000
    N187    N    0.10824   0.58203   0.33726   1.000
    N188    N    0.10592   0.12165   0.46953   1.000
    N189    N    0.57377   0.44493   0.78359   1.000
    N190    N    0.76809   0.65952   0.24071   1.000
    N191    N    0.64021   0.53357   0.65399   1.000
    O192    O    0.00658   0.70874   0.31356   1.000
    O193    O    0.03123   0.83208   0.42583   1.000
    O194    O    0.54941   0.32906   0.50290   1.000
    O195    O    0.57238   0.21166   0.42214   1.000
    O196    O    0.68963   0.68261   0.39011   1.000
    O197    O    0.60276   0.57065   0.40418   1.000
    O198    O    0.04740   0.49932   0.82865   1.000
    O199    O    0.15062   0.58157   0.79153   1.000
    O200    O    0.29871   0.60966   0.28931   1.000
    O201    O    0.19793   0.59604   0.16393   1.000
    O202    O    0.22366   0.17480   0.67686   1.000
    O203    O    0.36454   0.21268   0.79553   1.000
    O204    O    0.99339   0.29131   0.68642   1.000
    O205    O    0.96875   0.16797   0.57415   1.000
    O206    O    0.45057   0.67098   0.49707   1.000
    O207    O    0.42761   0.78839   0.57784   1.000
    O208    O    0.31034   0.31743   0.60986   1.000
    O209    O    0.39722   0.42939   0.59579   1.000
    O210    O    0.95256   0.50074   0.17133   1.000
    O211    O    0.84934   0.41849   0.20846   1.000
    O212    O    0.70126   0.39039   0.71066   1.000
    O213    O    0.80205   0.40401   0.83605   1.000
    O214    O    0.77631   0.82525   0.32311   1.000
    O215    O    0.63543   0.78737   0.20445   1.000
loop_
    _geom_bond_atom_site_label_1
    _geom_bond_atom_site_label_2
    _geom_bond_distance
    _geom_bond_site_symmetry_2
    _ccdc_geom_bond_type
    C137   C138      1.39457      .   S
    C137   H47       1.09105      .   S
    C137   C136      1.39701  1_554   S
    C138   H48       1.09031      .   S
    C138   C139      1.39335  1_454   S
    C108   C107      1.40181      .   S
    C108   C109      1.40303      .   S
    C108   C114      1.47799  1_554   S
    H28    C107      1.08785      .   S
    C88    H16       1.08894      .   S
    C88    N176      1.34955      .   S
    C88    C87       1.39336  1_454   S
    C85    H13       1.08975      .   S
    C85    C84       1.39251      .   S
    C85    C86       1.39698  1_554   S
    C165   C164      1.40176      .   S
    C165   C166      1.40506      .   S
    C165   C159      1.47798  1_554   S
    H29    C109      1.08849      .   S
    H64    C164      1.08935      .   S
    C107   C106      1.39266      .   S
    H65    C166      1.08937      .   S
    C109   C110      1.39126      .   S
    C164   C163      1.39522      .   S
    C166   C167      1.38986      .   S
    N176   C84       1.34904  1_455   S
    N176   Cd0       2.39936      .   S
    C84    H12       1.09054      .   S
    O201   C111      1.27412      .   S
    O201   Cd0       2.34375      .   S
    C106   C111      1.51882      .   S
    C106   N180      1.35075      .   S
    O210   C151      1.29163      .   S
    O210   Cd0       2.29801  1_655   S
    C110   N180      1.34409      .   S
    C110   H30       1.09007      .   S
    C163   N190      1.34774      .   S
    C163   C168      1.53115      .   S
    C167   H66       1.08815      .   S
    C167   N190      1.34465      .   S
    O215   C168      1.24354      .   S
    O211   C151      1.24399      .   S
    C111   O200      1.26267      .   S
    N180   Cd2       2.40067      .   S
    C151   C146      1.53140  1_655   S
    Cd0    O192      2.44104      .   S
    Cd0    N174      2.40972      .   S
    Cd0    N187      2.37471      .   S
    N190   Cd1       2.37418      .   S
    C168   O214      1.29261      .   S
    H58    C154      1.09102      .   S
    H35    C119      1.08976      .   S
    H34    C118      1.09056      .   S
    O200   Cd2       2.43959      .   S
    C119   C118      1.39265      .   S
    C119   C120      1.39685      .   S
    H8     C76       1.09012      .   S
    C118   N182      1.34917      .   S
    C146   N187      1.34781      .   S
    C146   C147      1.39525      .   S
    C154   C155      1.39450  1_455   S
    C154   C153      1.39707  1_565   S
    O192   C77       1.26191      .   S
    H59    C155      1.09101      .   S
    O214   Cd1       2.29440      .   S
    H44    C133      1.08834      .   S
    H57    C153      1.08977      .   S
    H53    C147      1.08924  1_655   S
    H36    C120      1.09107      .   S
    C120   C121      1.39459      .   S
    N174   C76       1.34436      .   S
    N174   C72       1.35063      .   S
    N187   C150      1.34456      .   S
    C76    C75       1.39157      .   S
    N182   Cd2       2.40703      .   S
    N182   C122      1.34957      .   S
    C155   C156      1.39363  1_665   S
    C153   C152      1.39258      .   S
    C147   C148      1.40176      .   S
    Cd2    O197      2.34675      .   S
    Cd2    N184      2.38074      .   S
    Cd2    O206      2.29561      .   S
    C77    C72       1.51903      .   S
    C77    O193      1.27452      .   S
    C121   C122      1.39342      .   S
    C121   H37       1.09043      .   S
    C122   H38       1.08890      .   S
    C72    C73       1.39269      .   S
    C133   N184      1.34525      .   S
    C133   C132      1.39022      .   S
    O196   Cd1       2.43950      .   S
    O196   C94       1.26258      .   S
    C75    H7        1.08850      .   S
    C75    C74       1.40307      .   S
    Cd1    O193      2.34329  1_655   S
    Cd1    N177      2.40457      .   S
    Cd1    N179      2.40378      .   S
    H43    C132      1.08933      .   S
    H9     C79       1.08932      .   S
    O197   C94       1.27401      .   S
    C94    C89       1.51913      .   S
    C150   H55       1.08810      .   S
    C150   C149      1.38988      .   S
    N184   C129      1.34791      .   S
    O195   C83       1.24397      .   S
    C132   C131      1.40517      .   S
    C156   H60       1.08866  1_455   S
    C156   N188      1.34968      .   S
    C152   H56       1.09048      .   S
    C152   N188      1.34919      .   S
    C148   C149      1.40490      .   S
    C148   C142      1.47780      .   S
    C73    C74       1.40156      .   S
    C73    H6        1.08766      .   S
    C74    C80       1.47830  1_565   S
    N177   C89       1.35074      .   S
    N177   C93       1.34421      .   S
    C89    C90       1.39267      .   S
    H51    C143      1.08829  1_655   S
    C149   H54       1.08936      .   S
    C79    C80       1.40143      .   S
    C79    C78       1.39522      .   S
    N188   Cd4       2.40381      .   S
    H19    C93       1.08996  1_455   S
    C83    O194      1.29156      .   S
    C83    C78       1.53125      .   S
    C142   C143      1.40297      .   S
    C142   C141      1.40186      .   S
    H21    C98       1.08935      .   S
    C93    C92       1.39148      .   S
    C143   C144      1.39150      .   S
    C90    H17       1.08780      .   S
    C90    C91       1.40184      .   S
    C129   C134      1.53125      .   S
    C129   C130      1.39520      .   S
    C80    C81       1.40517      .   S
    O206   C134      1.29155      .   S
    O194   Cd5       2.29560      .   S
    C131   C130      1.40145      .   S
    C131   C125      1.47831  1_565   S
    C78    N175      1.34790      .   S
    H50    C141      1.08781      .   S
    C141   C140      1.39265      .   S
    C92    C91       1.40298      .   S
    C92    H18       1.08831  1_655   S
    C144   H52       1.08996  1_455   S
    C144   N186      1.34420      .   S
    C91    C97       1.47781      .   S
    C134   O207      1.24397      .   S
    H39    C124      1.08765      .   S
    N179   C101      1.34919      .   S
    N179   C105      1.34968      .   S
    H23    C101      1.09048      .   S
    C130   H42       1.08933      .   S
    C98    C97       1.40489      .   S
    C98    C99       1.38988      .   S
    H27    C105      1.08866  1_455   S
    C140   N186      1.35075      .   S
    C140   C145      1.51915      .   S
    N186   Cd4       2.40460      .   S
    C125   C124      1.40156      .   S
    C125   C126      1.40306      .   S
    C124   C123      1.39269      .   S
    H22    C99       1.08810      .   S
    C97    C96       1.40175      .   S
    C101   C102      1.39257      .   S
    C105   C104      1.39363  1_665   S
    C81    H10       1.08934      .   S
    C81    C82       1.39023      .   S
    O205   Cd4       2.34329  1_655   S
    O205   C128      1.27451      .   S
    N175   C82       1.34525      .   S
    N175   Cd5       2.38076      .   S
    C99    N178      1.34456      .   S
    H71    C173      1.08890      .   S
    C145   O209      1.27401      .   S
    C145   O208      1.26256      .   S
    H70    C172      1.09044      .   S
    O209   Cd5       2.34672      .   S
    H40    C126      1.08851      .   S
    Cd4    O208      2.43947      .   S
    Cd4    O202      2.29438      .   S
    Cd4    N181      2.37418      .   S
    C126   C127      1.39156      .   S
    C82    H11       1.08833      .   S
    C123   C128      1.51903      .   S
    C123   N183      1.35065      .   S
    C173   C172      1.39342      .   S
    C173   N191      1.34957      .   S
    C172   C171      1.39459      .   S
    C128   O204      1.26191      .   S
    Cd5    N191      2.40704      .   S
    Cd5    O212      2.43959      .   S
    Cd5    N189      2.40071      .   S
    C96    H20       1.08924  1_655   S
    C96    C95       1.39525      .   S
    C102   H24       1.08977      .   S
    C102   C103      1.39707  1_565   S
    C104   H26       1.09099      .   S
    C104   C103      1.39452  1_455   S
    N191   C169      1.34916      .   S
    C127   N183      1.34435      .   S
    C127   H41       1.09012      .   S
    N178   C95       1.34781      .   S
    N178   Cd3       2.37475      .   S
    N183   Cd3       2.40971      .   S
    C171   H69       1.09108      .   S
    C171   C170      1.39683      .   S
    O202   C117      1.29262      .   S
    O204   Cd3       2.44100      .   S
    C103   H25       1.09100      .   S
    C95    C100      1.53141  1_655   S
    C169   C170      1.39263      .   S
    C169   H67       1.09056      .   S
    C170   H68       1.08977      .   S
    O212   C162      1.26267      .   S
    C117   O203      1.24354      .   S
    C117   C112      1.53114      .   S
    N181   C116      1.34464      .   S
    N181   C112      1.34775      .   S
    H33    C116      1.08815      .   S
    Cd3    O198      2.29802  1_655   S
    Cd3    O213      2.34376      .   S
    Cd3    N185      2.39940      .   S
    C100   O199      1.24398      .   S
    C100   O198      1.29162      .   S
    H63    C161      1.09006      .   S
    N189   C161      1.34409      .   S
    N189   C157      1.35075      .   S
    C162   C157      1.51883      .   S
    C162   O213      1.27412      .   S
    C116   C115      1.38987      .   S
    C112   C113      1.39521      .   S
    H45    C135      1.09055      .   S
    C161   C160      1.39127      .   S
    C157   C158      1.39266      .   S
    C135   N185      1.34904  1_455   S
    C135   C136      1.39248      .   S
    N185   C139      1.34957      .   S
    C115   H32       1.08935      .   S
    C115   C114      1.40508      .   S
    C113   H31       1.08935      .   S
    C113   C114      1.40175      .   S
    C160   H62       1.08847      .   S
    C160   C159      1.40303      .   S
    H15    C87       1.09033      .   S
    H14    C86       1.09104      .   S
    C158   H61       1.08784      .   S
    C158   C159      1.40182      .   S
    H46    C136      1.08975      .   S
    H49    C139      1.08892      .   S
    C87    C86       1.39457      .   S
