# CIF file generated by openbabel 2.4.90, see http://openbabel.sf.net
data_I
_chemical_name_common ''
_cell_length_a 15.405
_cell_length_b 21.449
_cell_length_c 21.44
_cell_angle_alpha 119.836
_cell_angle_beta 90.02
_cell_angle_gamma 89.974
_space_group_name_H-M_alt 'P 1'
_space_group_name_Hall 'P 1'
loop_
    _symmetry_equiv_pos_as_xyz
    x,y,z
loop_
    _atom_site_label
    _atom_site_type_symbol
    _atom_site_fract_x
    _atom_site_fract_y
    _atom_site_fract_z
    _atom_site_occupancy
    C0      C    0.41658   0.67751   0.21870   1.000
    C1      C    0.91597   0.67745   0.21880   1.000
    C2      C    0.08343   0.54124   0.32305   1.000
    C3      C    0.58361   0.54133   0.32318   1.000
    C4      C    0.24971   0.78177   0.45936   1.000
    C5      C    0.74955   0.78175   0.45920   1.000
    C6      C    0.41563   0.32297   0.78151   1.000
    C7      C    0.91566   0.32296   0.78150   1.000
    C8      C    0.08166   0.45964   0.67688   1.000
    C9      C    0.58168   0.45962   0.67685   1.000
    C10     C    0.24964   0.21864   0.54120   1.000
    C11     C    0.74970   0.21855   0.54121   1.000
    C12     C    0.24881   0.45901   0.78154   1.000
    C13     C    0.74886   0.45896   0.78144   1.000
    C14     C    0.08328   0.21849   0.67732   1.000
    C15     C    0.58330   0.21850   0.67732   1.000
    C16     C    0.41610   0.32304   0.54085   1.000
    C17     C    0.91610   0.32299   0.54082   1.000
    C18     C    0.25030   0.54107   0.21820   1.000
    C19     C    0.74990   0.54106   0.21820   1.000
    C20     C    0.08379   0.78148   0.32279   1.000
    C21     C    0.58322   0.78160   0.32277   1.000
    C22     C    0.41634   0.67691   0.45915   1.000
    C23     C    0.91649   0.67695   0.45920   1.000
    O24     O    0.45610   0.63738   0.23814   1.000
    O25     O    0.95596   0.63767   0.23845   1.000
    O26     O    0.34413   0.70874   0.24280   1.000
    O27     O    0.84317   0.70810   0.24261   1.000
    O28     O    0.12501   0.59997   0.36144   1.000
    O29     O    0.62503   0.60009   0.36182   1.000
    O30     O    0.00949   0.53530   0.29426   1.000
    O31     O    0.50982   0.53538   0.29416   1.000
    O32     O    0.28941   0.76272   0.40006   1.000
    O33     O    0.78904   0.76262   0.39981   1.000
    O34     O    0.17731   0.75741   0.46630   1.000
    O35     O    0.67712   0.75751   0.46629   1.000
    O36     O    0.45606   0.36197   0.76116   1.000
    O37     O    0.95609   0.36196   0.76115   1.000
    O38     O    0.34220   0.29321   0.75852   1.000
    O39     O    0.84225   0.29318   0.75849   1.000
    O40     O    0.12248   0.40067   0.63781   1.000
    O41     O    0.62250   0.40066   0.63777   1.000
    O42     O    0.00815   0.46597   0.70644   1.000
    O43     O    0.50818   0.46596   0.70643   1.000
    O44     O    0.28916   0.23770   0.60067   1.000
    O45     O    0.78919   0.23764   0.60063   1.000
    O46     O    0.17729   0.24311   0.53427   1.000
    O47     O    0.67736   0.24301   0.53417   1.000
    O48     O    0.20794   0.40003   0.76167   1.000
    O49     O    0.70799   0.39999   0.76160   1.000
    O50     O    0.32198   0.46544   0.75787   1.000
    O51     O    0.82202   0.46537   0.75776   1.000
    O52     O    0.04385   0.23780   0.63705   1.000
    O53     O    0.54390   0.23779   0.63703   1.000
    O54     O    0.15566   0.24268   0.70865   1.000
    O55     O    0.65569   0.24267   0.70865   1.000
    O56     O    0.37473   0.36186   0.59963   1.000
    O57     O    0.87474   0.36181   0.59960   1.000
    O58     O    0.48942   0.29335   0.53489   1.000
    O59     O    0.98943   0.29331   0.53485   1.000
    O60     O    0.21079   0.60046   0.23736   1.000
    O61     O    0.70995   0.60029   0.23742   1.000
    O62     O    0.32275   0.53399   0.24248   1.000
    O63     O    0.82248   0.53423   0.24244   1.000
    O64     O    0.04399   0.76210   0.36284   1.000
    O65     O    0.54370   0.76217   0.36289   1.000
    O66     O    0.15643   0.75744   0.29190   1.000
    O67     O    0.65569   0.75747   0.29158   1.000
    O68     O    0.37482   0.63839   0.40038   1.000
    O69     O    0.87483   0.63858   0.40047   1.000
    O70     O    0.49000   0.70607   0.46508   1.000
    O71     O    0.99027   0.70592   0.46510   1.000
loop_
    _geom_bond_atom_site_label_1
    _geom_bond_atom_site_label_2
    _geom_bond_distance
    _geom_bond_site_symmetry_2
    _ccdc_geom_bond_type
    C19    O61       1.28100      .   S
    C19    O63       1.27167      .   S
    C18    O60       1.28086      .   S
    C18    O62       1.27197      .   S
    C0     O24       1.28111      .   S
    C0     O26       1.27161      .   S
    C1     O25       1.28149      .   S
    C1     O27       1.27140      .   S
    O67    C21       1.27165      .   S
    O66    C20       1.27148      .   S
    O31    C3        1.27126      .   S
    O30    C2        1.27132      .   S
    C21    O65       1.28105      .   S
    C20    O64       1.28139      .   S
    C2     O28       1.28182      .   S
    C3     O29       1.28190      .   S
    O33    C5        1.28071      .   S
    O32    C4        1.28093      .   S
    O68    C22       1.28200      .   S
    O69    C23       1.28197      .   S
    C22    O70       1.27132      .   S
    C23    O71       1.27132      .   S
    C5     O35       1.27193      .   S
    C4     O34       1.27161      .   S
    O47    C11       1.27211      .   S
    O46    C10       1.27152      .   S
    O59    C17       1.27125      .   S
    O58    C16       1.27126      .   S
    C17    O57       1.28200      .   S
    C16    O56       1.28207      .   S
    C10    O44       1.28238      .   S
    C11    O45       1.28112      .   S
    O53    C15       1.28099      .   S
    O52    C14       1.28101      .   S
    O41    C9        1.28152      .   S
    O40    C8        1.28147      .   S
    C9     O43       1.27173      .   S
    C8     O42       1.27175      .   S
    C14    O54       1.27164      .   S
    C15    O55       1.27167      .   S
    O51    C13       1.27152      .   S
    O50    C12       1.27160      .   S
    O39    C7        1.27156      .   S
    O38    C6        1.27155      .   S
    O37    C7        1.28139      .   S
    O36    C6        1.28139      .   S
    O49    C13       1.28151      .   S
    O48    C12       1.28153      .   S
