# CIF file generated by openbabel 2.4.90, see http://openbabel.sf.net
data_I
_chemical_name_common ''
_cell_length_a 15.405
_cell_length_b 21.449
_cell_length_c 21.44
_cell_angle_alpha 119.836
_cell_angle_beta 90.02
_cell_angle_gamma 89.974
_space_group_name_H-M_alt 'P 1'
_space_group_name_Hall 'P 1'
loop_
    _symmetry_equiv_pos_as_xyz
    x,y,z
loop_
    _atom_site_label
    _atom_site_type_symbol
    _atom_site_fract_x
    _atom_site_fract_y
    _atom_site_fract_z
    _atom_site_occupancy
    Zn0     Zn   0.91529   0.60168   0.30152   1.000
    Zn1     Zn   0.08443   0.69888   0.39870   1.000
    Zn2     Zn   0.58427   0.69893   0.39878   1.000
    Zn3     Zn   0.25070   0.69943   0.30082   1.000
    Zn4     Zn   0.74900   0.69935   0.30078   1.000
    Zn5     Zn   0.41512   0.39853   0.69861   1.000
    Zn6     Zn   0.91516   0.39848   0.69856   1.000
    Zn7     Zn   0.08378   0.30138   0.60141   1.000
    Zn8     Zn   0.58392   0.30134   0.60136   1.000
    Zn9     Zn   0.24857   0.30113   0.69950   1.000
    Zn10    Zn   0.74860   0.30108   0.69947   1.000
    Zn11    Zn   0.41541   0.60156   0.30140   1.000
    C12     C    0.41658   0.67751   0.21870   1.000
    C13     C    0.91597   0.67745   0.21880   1.000
    C14     C    0.08343   0.54124   0.32305   1.000
    C15     C    0.58361   0.54133   0.32318   1.000
    C16     C    0.24971   0.78177   0.45936   1.000
    C17     C    0.74955   0.78175   0.45920   1.000
    C18     C    0.41563   0.32297   0.78151   1.000
    C19     C    0.91566   0.32296   0.78150   1.000
    C20     C    0.08166   0.45964   0.67688   1.000
    C21     C    0.58168   0.45962   0.67685   1.000
    C22     C    0.24964   0.21864   0.54120   1.000
    C23     C    0.74970   0.21855   0.54121   1.000
    C24     C    0.24881   0.45901   0.78154   1.000
    C25     C    0.74886   0.45896   0.78144   1.000
    C26     C    0.08328   0.21849   0.67732   1.000
    C27     C    0.58330   0.21850   0.67732   1.000
    C28     C    0.41610   0.32304   0.54085   1.000
    C29     C    0.91610   0.32299   0.54082   1.000
    C30     C    0.25030   0.54107   0.21820   1.000
    C31     C    0.74990   0.54106   0.21820   1.000
    C32     C    0.08379   0.78148   0.32279   1.000
    C33     C    0.58322   0.78160   0.32277   1.000
    C34     C    0.41634   0.67691   0.45915   1.000
    C35     C    0.91649   0.67695   0.45920   1.000
    O36     O    0.45610   0.63738   0.23814   1.000
    O37     O    0.95596   0.63767   0.23845   1.000
    O38     O    0.34413   0.70874   0.24280   1.000
    O39     O    0.84317   0.70810   0.24261   1.000
    O40     O    0.12501   0.59997   0.36144   1.000
    O41     O    0.62503   0.60009   0.36182   1.000
    O42     O    0.00949   0.53530   0.29426   1.000
    O43     O    0.50982   0.53538   0.29416   1.000
    O44     O    0.28941   0.76272   0.40006   1.000
    O45     O    0.78904   0.76262   0.39981   1.000
    O46     O    0.17731   0.75741   0.46630   1.000
    O47     O    0.67712   0.75751   0.46629   1.000
    O48     O    0.45606   0.36197   0.76116   1.000
    O49     O    0.95609   0.36196   0.76115   1.000
    O50     O    0.34220   0.29321   0.75852   1.000
    O51     O    0.84225   0.29318   0.75849   1.000
    O52     O    0.12248   0.40067   0.63781   1.000
    O53     O    0.62250   0.40066   0.63777   1.000
    O54     O    0.00815   0.46597   0.70644   1.000
    O55     O    0.50818   0.46596   0.70643   1.000
    O56     O    0.28916   0.23770   0.60067   1.000
    O57     O    0.78919   0.23764   0.60063   1.000
    O58     O    0.17729   0.24311   0.53427   1.000
    O59     O    0.67736   0.24301   0.53417   1.000
    O60     O    0.20794   0.40003   0.76167   1.000
    O61     O    0.70799   0.39999   0.76160   1.000
    O62     O    0.32198   0.46544   0.75787   1.000
    O63     O    0.82202   0.46537   0.75776   1.000
    O64     O    0.04385   0.23780   0.63705   1.000
    O65     O    0.54390   0.23779   0.63703   1.000
    O66     O    0.15566   0.24268   0.70865   1.000
    O67     O    0.65569   0.24267   0.70865   1.000
    O68     O    0.37473   0.36186   0.59963   1.000
    O69     O    0.87474   0.36181   0.59960   1.000
    O70     O    0.48942   0.29335   0.53489   1.000
    O71     O    0.98943   0.29331   0.53485   1.000
    O72     O    0.21079   0.60046   0.23736   1.000
    O73     O    0.70995   0.60029   0.23742   1.000
    O74     O    0.32275   0.53399   0.24248   1.000
    O75     O    0.82248   0.53423   0.24244   1.000
    O76     O    0.04399   0.76210   0.36284   1.000
    O77     O    0.54370   0.76217   0.36289   1.000
    O78     O    0.15643   0.75744   0.29190   1.000
    O79     O    0.65569   0.75747   0.29158   1.000
    O80     O    0.37482   0.63839   0.40038   1.000
    O81     O    0.87483   0.63858   0.40047   1.000
    O82     O    0.49000   0.70607   0.46508   1.000
    O83     O    0.99027   0.70592   0.46510   1.000
    Og84    Og   0.43083   0.68135   0.20004   1.000
    Og85    Og   0.93025   0.68135   0.20017   1.000
    Og86    Og   0.09763   0.51865   0.31893   1.000
    Og87    Og   0.59780   0.51873   0.31905   1.000
    Og88    Og   0.26393   0.80038   0.48182   1.000
    Og89    Og   0.76381   0.80035   0.48163   1.000
    Og90    Og   0.42996   0.31902   0.80010   1.000
    Og91    Og   0.92999   0.31902   0.80010   1.000
    Og92    Og   0.09598   0.48219   0.68095   1.000
    Og93    Og   0.59599   0.48218   0.68091   1.000
    Og94    Og   0.26389   0.20002   0.51877   1.000
    Og95    Og   0.76395   0.19991   0.51876   1.000
    Og96    Og   0.23474   0.48152   0.80020   1.000
    Og97    Og   0.73481   0.48148   0.80009   1.000
    Og98    Og   0.06901   0.19986   0.68118   1.000
    Og99    Og   0.56903   0.19987   0.68119   1.000
    Og100   Og   0.40207   0.31910   0.51824   1.000
    Og101   Og   0.90207   0.31906   0.51821   1.000
    Og102   Og   0.23602   0.51863   0.19959   1.000
    Og103   Og   0.73569   0.51860   0.19958   1.000
    Og104   Og   0.06951   0.80011   0.31889   1.000
    Og105   Og   0.56896   0.80024   0.31891   1.000
    Og106   Og   0.40223   0.68093   0.48177   1.000
    Og107   Og   0.90237   0.68098   0.48182   1.000
loop_
    _geom_bond_atom_site_label_1
    _geom_bond_atom_site_label_2
    _geom_bond_distance
    _geom_bond_site_symmetry_2
    _ccdc_geom_bond_type
    C31    O73       1.28100      .   S
    C31    O75       1.27167      .   S
    C30    O72       1.28086      .   S
    C30    O74       1.27197      .   S
    C12    O36       1.28111      .   S
    C12    O38       1.27161      .   S
    C13    O37       1.28149      .   S
    C13    O39       1.27140      .   S
    O72    Zn3       1.96532      .   S
    O73    Zn4       1.96223      .   S
    O36    Zn11      1.96485      .   S
    O37    Zn0       1.96384      .   S
    O75    Zn0       1.97960      .   S
    O74    Zn11      1.97810      .   S
    O39    Zn4       1.98237      .   S
    O38    Zn3       1.97664      .   S
    O79    Zn4       1.97539      .   S
    O79    C33       1.27165      .   S
    O78    Zn3       1.98212      .   S
    O78    C32       1.27148      .   S
    O43    Zn11      1.98325      .   S
    O43    C15       1.27126      .   S
    O42    Zn0       1.98358  1_455   S
    O42    C14       1.27132      .   S
    Zn4    O45       1.96544      .   S
    Zn3    O44       1.96248      .   S
    Zn11   O80       1.96236      .   S
    Zn0    O81       1.96096      .   S
    C33    O77       1.28105      .   S
    C32    O76       1.28139      .   S
    C14    O40       1.28182      .   S
    C15    O41       1.28190      .   S
    O40    Zn1       1.96026      .   S
    O41    Zn2       1.96067      .   S
    O76    Zn1       1.96321      .   S
    O77    Zn2       1.96476      .   S
    Zn1    O83       1.98516  1_455   S
    Zn1    O46       1.97834      .   S
    Zn2    O82       1.98439      .   S
    Zn2    O47       1.97735      .   S
    O45    C17       1.28071      .   S
    O44    C16       1.28093      .   S
    O80    C34       1.28200      .   S
    O81    C35       1.28197      .   S
    C34    O82       1.27132      .   S
    C35    O83       1.27132      .   S
    C17    O47       1.27193      .   S
    C16    O46       1.27161      .   S
    O59    C23       1.27211      .   S
    O59    Zn8       1.97963      .   S
    O58    C22       1.27152      .   S
    O58    Zn7       1.97959      .   S
    O71    C29       1.27125      .   S
    O71    Zn7       1.98299  1_655   S
    O70    C28       1.27126      .   S
    O70    Zn8       1.98367      .   S
    C29    O69       1.28200      .   S
    C28    O68       1.28207      .   S
    C22    O56       1.28238      .   S
    C23    O57       1.28112      .   S
    O69    Zn6       1.96141      .   S
    O68    Zn5       1.96162      .   S
    O57    Zn10      1.96573      .   S
    O56    Zn9       1.96560      .   S
    Zn8    O65       1.96497      .   S
    Zn8    O53       1.96137      .   S
    Zn7    O64       1.96480      .   S
    Zn7    O52       1.96133      .   S
    O65    C27       1.28099      .   S
    O64    C26       1.28101      .   S
    O53    C21       1.28152      .   S
    O52    C20       1.28147      .   S
    C21    O55       1.27173      .   S
    C20    O54       1.27175      .   S
    C26    O66       1.27164      .   S
    C27    O67       1.27167      .   S
    Zn6    O54       1.98346  1_655   S
    Zn6    O63       1.97878      .   S
    Zn6    O49       1.96388      .   S
    Zn5    O55       1.98362      .   S
    Zn5    O62       1.97934      .   S
    Zn5    O48       1.96393      .   S
    Zn10   O67       1.97592      .   S
    Zn10   O51       1.98073      .   S
    Zn10   O61       1.96316      .   S
    Zn9    O66       1.97624      .   S
    Zn9    O50       1.98073      .   S
    Zn9    O60       1.96319      .   S
    O63    C25       1.27152      .   S
    O62    C24       1.27160      .   S
    O51    C19       1.27156      .   S
    O50    C18       1.27155      .   S
    O49    C19       1.28139      .   S
    O48    C18       1.28139      .   S
    O61    C25       1.28151      .   S
    O60    C24       1.28153      .   S
    C12    Og84      0.49791      .   S
    C13    Og85      0.49823      .   S
    C14    Og86      0.49792      .   S
    C15    Og87      0.49789      .   S
    C16    Og88      0.49797      .   S
    C17    Og89      0.49779      .   S
    C18    Og90      0.49823      .   S
    C19    Og91      0.49826      .   S
    C20    Og92      0.49840      .   S
    C21    Og93      0.49842      .   S
    C22    Og94      0.49788      .   S
    C23    Og95      0.49820      .   S
    C24    Og96      0.49798      .   S
    C25    Og97      0.49793      .   S
    C26    Og98      0.49790      .   S
    C27    Og99      0.49790      .   S
    C28    Og100     0.49804      .   S
    C29    Og101     0.49803      .   S
    C30    Og102     0.49813      .   S
    C31    Og103     0.49807      .   S
    C32    Og104     0.49815      .   S
    C33    Og105     0.49790      .   S
    C34    Og106     0.49823      .   S
    C35    Og107     0.49824      .   S
