# CIF file generated by openbabel 2.4.90, see http://openbabel.sf.net
data_I
_chemical_name_common ''
_cell_length_a 15.405
_cell_length_b 21.449
_cell_length_c 21.44
_cell_angle_alpha 119.836
_cell_angle_beta 90.02
_cell_angle_gamma 89.974
_space_group_name_H-M_alt 'P 1'
_space_group_name_Hall 'P 1'
loop_
    _symmetry_equiv_pos_as_xyz
    x,y,z
loop_
    _atom_site_label
    _atom_site_type_symbol
    _atom_site_fract_x
    _atom_site_fract_y
    _atom_site_fract_z
    _atom_site_occupancy
    C0      C    0.41541   0.60156   0.30140   1.000
    C1      C    0.91529   0.60168   0.30152   1.000
    C2      C    0.08443   0.69888   0.39870   1.000
    C3      C    0.58427   0.69893   0.39878   1.000
    C4      C    0.25070   0.69943   0.30082   1.000
    C5      C    0.74900   0.69935   0.30078   1.000
    C6      C    0.41512   0.39853   0.69861   1.000
    C7      C    0.91516   0.39848   0.69856   1.000
    C8      C    0.08378   0.30138   0.60141   1.000
    C9      C    0.58392   0.30134   0.60136   1.000
    C10     C    0.24857   0.30113   0.69950   1.000
    C11     C    0.74860   0.30108   0.69947   1.000
    C12     C    0.35083   0.74823   0.15519   1.000
    C13     C    0.85033   0.74820   0.15513   1.000
    C14     C    0.41726   0.76861   0.06300   1.000
    C15     C    0.91700   0.76861   0.06309   1.000
    C16     C    0.07800   0.63479   0.16005   1.000
    C17     C    0.57849   0.63453   0.15965   1.000
    C18     C    0.14550   0.65341   0.06618   1.000
    C19     C    0.64579   0.65319   0.06572   1.000
    C20     C    0.01695   0.40739   0.25243   1.000
    C21     C    0.51706   0.40751   0.25250   1.000
    C22     C    0.08363   0.29472   0.23131   1.000
    C23     C    0.58367   0.29480   0.23130   1.000
    C24     C    0.24569   0.52428   0.36438   1.000
    C25     C    0.74585   0.52429   0.36400   1.000
    C26     C    0.31327   0.41155   0.34487   1.000
    C27     C    0.81336   0.41151   0.34400   1.000
    C28     C    0.18357   0.84544   0.59322   1.000
    C29     C    0.68356   0.84538   0.59309   1.000
    C30     C    0.24998   0.93744   0.70542   1.000
    C31     C    0.74999   0.93733   0.70529   1.000
    C32     C    0.41180   0.84040   0.47548   1.000
    C33     C    0.91174   0.84034   0.47531   1.000
    C34     C    0.47915   0.93407   0.58777   1.000
    C35     C    0.97914   0.93396   0.58761   1.000
    C36     C    0.35013   0.25222   0.84517   1.000
    C37     C    0.85018   0.25222   0.84519   1.000
    C38     C    0.41692   0.23173   0.93716   1.000
    C39     C    0.91696   0.23178   0.93720   1.000
    C40     C    0.07785   0.36535   0.84005   1.000
    C41     C    0.57785   0.36530   0.84002   1.000
    C42     C    0.14548   0.34670   0.93390   1.000
    C43     C    0.64550   0.34660   0.93384   1.000
    C44     C    0.01565   0.59372   0.74718   1.000
    C45     C    0.51566   0.59371   0.74714   1.000
    C46     C    0.08268   0.70613   0.76800   1.000
    C47     C    0.58268   0.70611   0.76815   1.000
    C48     C    0.24431   0.47623   0.63565   1.000
    C49     C    0.74432   0.47623   0.63563   1.000
    C50     C    0.31237   0.58873   0.65524   1.000
    C51     C    0.81239   0.58873   0.65523   1.000
    C52     C    0.18333   0.15465   0.40748   1.000
    C53     C    0.68347   0.15453   0.40739   1.000
    C54     C    0.24957   0.06273   0.29532   1.000
    C55     C    0.74972   0.06260   0.29528   1.000
    C56     C    0.41207   0.16004   0.52498   1.000
    C57     C    0.91211   0.15990   0.52497   1.000
    C58     C    0.47936   0.06650   0.41265   1.000
    C59     C    0.97941   0.06628   0.41269   1.000
    C60     C    0.31575   0.59266   0.84523   1.000
    C61     C    0.81589   0.59257   0.84510   1.000
    C62     C    0.24983   0.70503   0.93730   1.000
    C63     C    0.74999   0.70500   0.93724   1.000
    C64     C    0.08698   0.47571   0.84053   1.000
    C65     C    0.58702   0.47571   0.84030   1.000
    C66     C    0.02022   0.58813   0.93450   1.000
    C67     C    0.52027   0.58818   0.93420   1.000
    C68     C    0.14903   0.15496   0.74800   1.000
    C69     C    0.64907   0.15500   0.74801   1.000
    C70     C    0.08265   0.06280   0.76831   1.000
    C71     C    0.58269   0.06286   0.76838   1.000
    C72     C    0.42124   0.15968   0.63457   1.000
    C73     C    0.92125   0.15965   0.63451   1.000
    C74     C    0.35401   0.06572   0.65318   1.000
    C75     C    0.85403   0.06564   0.65306   1.000
    C76     C    0.48341   0.25325   0.40718   1.000
    C77     C    0.98342   0.25321   0.40715   1.000
    C78     C    0.41748   0.23271   0.29442   1.000
    C79     C    0.91749   0.23266   0.29400   1.000
    C80     C    0.25420   0.36475   0.52360   1.000
    C81     C    0.75421   0.36473   0.52359   1.000
    C82     C    0.18731   0.34573   0.41082   1.000
    C83     C    0.68732   0.34571   0.41080   1.000
    C84     C    0.31644   0.40731   0.15435   1.000
    C85     C    0.81634   0.40735   0.15434   1.000
    C86     C    0.25014   0.29522   0.06252   1.000
    C87     C    0.75015   0.29519   0.06246   1.000
    C88     C    0.08784   0.52486   0.15966   1.000
    C89     C    0.58757   0.52470   0.15961   1.000
    C90     C    0.02046   0.41258   0.06613   1.000
    C91     C    0.52034   0.41238   0.06600   1.000
    C92     C    0.14949   0.84514   0.25212   1.000
    C93     C    0.64902   0.84509   0.25212   1.000
    C94     C    0.08296   0.93734   0.23188   1.000
    C95     C    0.58270   0.93737   0.23188   1.000
    C96     C    0.42124   0.84058   0.36559   1.000
    C97     C    0.92170   0.84019   0.36531   1.000
    C98     C    0.35401   0.93460   0.34699   1.000
    C99     C    0.85428   0.93414   0.34675   1.000
    C100    C    0.48334   0.74690   0.59300   1.000
    C101    C    0.98345   0.74693   0.59309   1.000
    C102    C    0.41704   0.76782   0.70570   1.000
    C103    C    0.91708   0.76783   0.70577   1.000
    C104    C    0.25418   0.63562   0.47632   1.000
    C105    C    0.75431   0.63571   0.47630   1.000
    C106    C    0.18692   0.65501   0.58908   1.000
    C107    C    0.68698   0.65505   0.58906   1.000
    C108    C    0.41658   0.67751   0.21870   1.000
    C109    C    0.91597   0.67745   0.21880   1.000
    C110    C    0.45933   0.68905   0.16273   1.000
    C111    C    0.95880   0.68914   0.16290   1.000
    C112    C    0.41533   0.72712   0.13503   1.000
    C113    C    0.91489   0.72716   0.13510   1.000
    C114    C    0.45344   0.73836   0.08261   1.000
    C115    C    0.95314   0.73841   0.08272   1.000
    C116    C    0.04248   0.66305   0.13772   1.000
    C117    C    0.54293   0.66284   0.13740   1.000
    C118    C    0.08057   0.67425   0.08525   1.000
    C119    C    0.58090   0.67407   0.08491   1.000
    C120    C    0.03633   0.71171   0.05666   1.000
    C121    C    0.53658   0.71160   0.05640   1.000
    C122    C    0.01937   0.74572   0.95715   1.000
    C123    C    0.51941   0.74572   0.95702   1.000
    C124    C    0.08343   0.54124   0.32305   1.000
    C125    C    0.58361   0.54133   0.32318   1.000
    C126    C    0.12603   0.47345   0.31070   1.000
    C127    C    0.62617   0.47352   0.31080   1.000
    C128    C    0.08176   0.40802   0.27295   1.000
    C129    C    0.58187   0.40810   0.27301   1.000
    C130    C    0.12004   0.34428   0.26123   1.000
    C131    C    0.62010   0.34433   0.26126   1.000
    C132    C    0.21003   0.47393   0.33610   1.000
    C133    C    0.71017   0.47395   0.33627   1.000
    C134    C    0.24814   0.41017   0.32448   1.000
    C135    C    0.74823   0.41016   0.32452   1.000
    C136    C    0.20354   0.34450   0.28728   1.000
    C137    C    0.70360   0.34452   0.28730   1.000
    C138    C    0.18618   0.21138   0.25401   1.000
    C139    C    0.68619   0.21138   0.25400   1.000
    C140    C    0.24971   0.78177   0.45936   1.000
    C141    C    0.74955   0.78175   0.45920   1.000
    C142    C    0.29238   0.83761   0.52674   1.000
    C143    C    0.79233   0.83753   0.52650   1.000
    C144    C    0.24820   0.86542   0.59230   1.000
    C145    C    0.74819   0.86535   0.59215   1.000
    C146    C    0.28632   0.91773   0.65578   1.000
    C147    C    0.78633   0.91763   0.65564   1.000
    C148    C    0.37615   0.86271   0.52589   1.000
    C149    C    0.87610   0.86263   0.52573   1.000
    C150    C    0.41414   0.91504   0.58943   1.000
    C151    C    0.91413   0.91494   0.58928   1.000
    C152    C    0.36966   0.94362   0.65522   1.000
    C153    C    0.86967   0.94352   0.65500   1.000
    C154    C    0.35268   0.04269   0.78844   1.000
    C155    C    0.85267   0.04262   0.78833   1.000
    C156    C    0.41563   0.32297   0.78151   1.000
    C157    C    0.91566   0.32296   0.78150   1.000
    C158    C    0.45862   0.31112   0.83727   1.000
    C159    C    0.95864   0.31114   0.83729   1.000
    C160    C    0.41473   0.27316   0.86513   1.000
    C161    C    0.91477   0.27320   0.86516   1.000
    C162    C    0.45308   0.26184   0.91746   1.000
    C163    C    0.95311   0.26190   0.91750   1.000
    C164    C    0.04237   0.33713   0.86240   1.000
    C165    C    0.54237   0.33707   0.86230   1.000
    C166    C    0.08054   0.32589   0.91485   1.000
    C167    C    0.58055   0.32580   0.91479   1.000
    C168    C    0.03634   0.28851   0.94352   1.000
    C169    C    0.53633   0.28842   0.94345   1.000
    C170    C    0.01932   0.25463   0.04312   1.000
    C171    C    0.51932   0.25456   0.04308   1.000
    C172    C    0.08166   0.45964   0.67688   1.000
    C173    C    0.58168   0.45962   0.67685   1.000
    C174    C    0.12461   0.52731   0.68908   1.000
    C175    C    0.62462   0.52729   0.68904   1.000
    C176    C    0.08054   0.59288   0.72673   1.000
    C177    C    0.58055   0.59286   0.72669   1.000
    C178    C    0.11905   0.65652   0.73841   1.000
    C179    C    0.61906   0.65651   0.73837   1.000
    C180    C    0.20873   0.52666   0.66378   1.000
    C181    C    0.70875   0.52665   0.66375   1.000
    C182    C    0.24712   0.59033   0.67552   1.000
    C183    C    0.74714   0.59032   0.67500   1.000
    C184    C    0.20273   0.65616   0.71259   1.000
    C185    C    0.70274   0.65615   0.71257   1.000
    C186    C    0.18611   0.78968   0.74663   1.000
    C187    C    0.68612   0.78968   0.74663   1.000
    C188    C    0.24964   0.21864   0.54120   1.000
    C189    C    0.74970   0.21855   0.54121   1.000
    C190    C    0.29238   0.16277   0.47390   1.000
    C191    C    0.79246   0.16264   0.47386   1.000
    C192    C    0.24806   0.13478   0.40838   1.000
    C193    C    0.74818   0.13465   0.40832   1.000
    C194    C    0.28616   0.08251   0.34485   1.000
    C195    C    0.78629   0.08235   0.34482   1.000
    C196    C    0.37625   0.13769   0.47463   1.000
    C197    C    0.87631   0.13754   0.47461   1.000
    C198    C    0.41426   0.08543   0.41103   1.000
    C199    C    0.91432   0.08523   0.41103   1.000
    C200    C    0.36968   0.05676   0.34524   1.000
    C201    C    0.86978   0.05655   0.34523   1.000
    C202    C    0.35267   0.95823   0.21193   1.000
    C203    C    0.85272   0.95815   0.21190   1.000
    C204    C    0.24881   0.45901   0.78154   1.000
    C205    C    0.74886   0.45896   0.78144   1.000
    C206    C    0.20661   0.52656   0.83752   1.000
    C207    C    0.70669   0.52653   0.83739   1.000
    C208    C    0.25111   0.59194   0.86533   1.000
    C209    C    0.75124   0.59189   0.86519   1.000
    C210    C    0.21329   0.65552   0.91776   1.000
    C211    C    0.71342   0.65549   0.91759   1.000
    C212    C    0.12286   0.52599   0.86281   1.000
    C213    C    0.62291   0.52598   0.86265   1.000
    C214    C    0.08521   0.58959   0.91532   1.000
    C215    C    0.58528   0.58961   0.91512   1.000
    C216    C    0.12996   0.65522   0.94380   1.000
    C217    C    0.63007   0.65521   0.94361   1.000
    C218    C    0.14726   0.78845   0.04200   1.000
    C219    C    0.64732   0.78844   0.04269   1.000
    C220    C    0.08328   0.21849   0.67732   1.000
    C221    C    0.58330   0.21850   0.67732   1.000
    C222    C    0.04047   0.16259   0.68891   1.000
    C223    C    0.54049   0.16262   0.68894   1.000
    C224    C    0.08452   0.13483   0.72690   1.000
    C225    C    0.58455   0.13487   0.72690   1.000
    C226    C    0.04644   0.08240   0.73811   1.000
    C227    C    0.54647   0.08246   0.73818   1.000
    C228    C    0.45685   0.13737   0.66281   1.000
    C229    C    0.95686   0.13732   0.66275   1.000
    C230    C    0.41892   0.08487   0.67402   1.000
    C231    C    0.91893   0.08480   0.67392   1.000
    C232    C    0.46331   0.05632   0.71145   1.000
    C233    C    0.96331   0.05624   0.71135   1.000
    C234    C    0.48056   0.95703   0.74566   1.000
    C235    C    0.98055   0.95698   0.74560   1.000
    C236    C    0.41610   0.32304   0.54085   1.000
    C237    C    0.91610   0.32299   0.54082   1.000
    C238    C    0.37401   0.31122   0.47302   1.000
    C239    C    0.87401   0.31118   0.47299   1.000
    C240    C    0.41866   0.27381   0.40770   1.000
    C241    C    0.91866   0.27377   0.40767   1.000
    C242    C    0.38080   0.26241   0.34380   1.000
    C243    C    0.88080   0.26237   0.34386   1.000
    C244    C    0.29013   0.33678   0.47335   1.000
    C245    C    0.79014   0.33675   0.47330   1.000
    C246    C    0.25241   0.32536   0.40953   1.000
    C247    C    0.75242   0.32533   0.40952   1.000
    C248    C    0.29727   0.28835   0.34393   1.000
    C249    C    0.79729   0.28832   0.34391   1.000
    C250    C    0.31399   0.25361   0.21018   1.000
    C251    C    0.81400   0.25360   0.21010   1.000
    C252    C    0.25030   0.54107   0.21820   1.000
    C253    C    0.74990   0.54106   0.21820   1.000
    C254    C    0.20747   0.47375   0.16238   1.000
    C255    C    0.70727   0.47367   0.16233   1.000
    C256    C    0.25172   0.40823   0.13446   1.000
    C257    C    0.75162   0.40821   0.13442   1.000
    C258    C    0.21360   0.34475   0.08221   1.000
    C259    C    0.71357   0.34470   0.08215   1.000
    C260    C    0.12360   0.47450   0.13733   1.000
    C261    C    0.62339   0.47437   0.13727   1.000
    C262    C    0.08557   0.41093   0.08506   1.000
    C263    C    0.58545   0.41079   0.08490   1.000
    C264    C    0.13011   0.34516   0.05641   1.000
    C265    C    0.63006   0.34506   0.05634   1.000
    C266    C    0.14725   0.21188   0.95805   1.000
    C267    C    0.64725   0.21181   0.95801   1.000
    C268    C    0.08379   0.78148   0.32279   1.000
    C269    C    0.58322   0.78160   0.32277   1.000
    C270    C    0.04096   0.83736   0.31108   1.000
    C271    C    0.54046   0.83754   0.31119   1.000
    C272    C    0.08493   0.86518   0.27313   1.000
    C273    C    0.58451   0.86526   0.27300   1.000
    C274    C    0.04674   0.91764   0.26196   1.000
    C275    C    0.54645   0.91774   0.26201   1.000
    C276    C    0.45683   0.86286   0.33733   1.000
    C277    C    0.95726   0.86254   0.33711   1.000
    C278    C    0.41891   0.91539   0.32614   1.000
    C279    C    0.91922   0.91505   0.32594   1.000
    C280    C    0.46330   0.94393   0.28870   1.000
    C281    C    0.96353   0.94371   0.28860   1.000
    C282    C    0.48059   0.04333   0.25464   1.000
    C283    C    0.98063   0.04322   0.25464   1.000
    C284    C    0.41634   0.67691   0.45915   1.000
    C285    C    0.91649   0.67695   0.45920   1.000
    C286    C    0.37402   0.68898   0.52700   1.000
    C287    C    0.87414   0.68904   0.52705   1.000
    C288    C    0.41851   0.72647   0.59240   1.000
    C289    C    0.91861   0.72650   0.59247   1.000
    C290    C    0.38043   0.73809   0.65620   1.000
    C291    C    0.88049   0.73811   0.65625   1.000
    C292    C    0.29002   0.66363   0.52660   1.000
    C293    C    0.79013   0.66370   0.52665   1.000
    C294    C    0.25209   0.67527   0.59040   1.000
    C295    C    0.75216   0.67532   0.59044   1.000
    C296    C    0.29683   0.71229   0.65611   1.000
    C297    C    0.79688   0.71232   0.65613   1.000
    C298    C    0.31382   0.74655   0.78973   1.000
    C299    C    0.81383   0.74655   0.78973   1.000
    C300    C    0.08328   0.72424   0.00010   1.000
    C301    C    0.58342   0.72421   0.99993   1.000
    C302    C    0.25033   0.27551   0.27481   1.000
    C303    C    0.75034   0.27550   0.27480   1.000
    C304    C    0.41652   0.99988   0.72413   1.000
    C305    C    0.91651   0.99979   0.72402   1.000
    C306    C    0.08324   0.27613   0.00018   1.000
    C307    C    0.58320   0.27603   0.00000   1.000
    C308    C    0.24990   0.72509   0.72521   1.000
    C309    C    0.74992   0.72509   0.72521   1.000
    C310    C    0.41657   0.00050   0.27622   1.000
    C311    C    0.91669   0.00032   0.27618   1.000
    C312    C    0.45610   0.63738   0.23814   1.000
    C313    C    0.95596   0.63767   0.23845   1.000
    C314    C    0.34413   0.70874   0.24280   1.000
    C315    C    0.84317   0.70810   0.24261   1.000
    C316    C    0.12501   0.59997   0.36144   1.000
    C317    C    0.62503   0.60009   0.36182   1.000
    C318    C    0.00949   0.53530   0.29426   1.000
    C319    C    0.50982   0.53538   0.29416   1.000
    C320    C    0.28941   0.76272   0.40006   1.000
    C321    C    0.78904   0.76262   0.39981   1.000
    C322    C    0.17731   0.75741   0.46630   1.000
    C323    C    0.67712   0.75751   0.46629   1.000
    C324    C    0.45606   0.36197   0.76116   1.000
    C325    C    0.95609   0.36196   0.76115   1.000
    C326    C    0.34220   0.29321   0.75852   1.000
    C327    C    0.84225   0.29318   0.75849   1.000
    C328    C    0.12248   0.40067   0.63781   1.000
    C329    C    0.62250   0.40066   0.63777   1.000
    C330    C    0.00815   0.46597   0.70644   1.000
    C331    C    0.50818   0.46596   0.70643   1.000
    C332    C    0.28916   0.23770   0.60067   1.000
    C333    C    0.78919   0.23764   0.60063   1.000
    C334    C    0.17729   0.24311   0.53427   1.000
    C335    C    0.67736   0.24301   0.53417   1.000
    C336    C    0.20794   0.40003   0.76167   1.000
    C337    C    0.70799   0.39999   0.76160   1.000
    C338    C    0.32198   0.46544   0.75787   1.000
    C339    C    0.82202   0.46537   0.75776   1.000
    C340    C    0.04385   0.23780   0.63705   1.000
    C341    C    0.54390   0.23779   0.63703   1.000
    C342    C    0.15566   0.24268   0.70865   1.000
    C343    C    0.65569   0.24267   0.70865   1.000
    C344    C    0.37473   0.36186   0.59963   1.000
    C345    C    0.87474   0.36181   0.59960   1.000
    C346    C    0.48942   0.29335   0.53489   1.000
    C347    C    0.98943   0.29331   0.53485   1.000
    C348    C    0.21079   0.60046   0.23736   1.000
    C349    C    0.70995   0.60029   0.23742   1.000
    C350    C    0.32275   0.53399   0.24248   1.000
    C351    C    0.82248   0.53423   0.24244   1.000
    C352    C    0.04399   0.76210   0.36284   1.000
    C353    C    0.54370   0.76217   0.36289   1.000
    C354    C    0.15643   0.75744   0.29190   1.000
    C355    C    0.65569   0.75747   0.29158   1.000
    C356    C    0.37482   0.63839   0.40038   1.000
    C357    C    0.87483   0.63858   0.40047   1.000
    C358    C    0.49000   0.70607   0.46508   1.000
    C359    C    0.99027   0.70592   0.46510   1.000
    C360    C    0.05930   0.74416   0.90006   1.000
    C361    C    0.55925   0.74418   0.89990   1.000
    C362    C    0.45174   0.69860   0.93052   1.000
    C363    C    0.95172   0.69860   0.93055   1.000
    C364    C    0.48519   0.81262   0.99717   1.000
    C365    C    0.98517   0.81263   0.99723   1.000
    C366    C    0.22604   0.15602   0.25593   1.000
    C367    C    0.72605   0.15602   0.25593   1.000
    C368    C    0.11858   0.23201   0.30132   1.000
    C369    C    0.61858   0.23201   0.30132   1.000
    C370    C    0.15177   0.18447   0.18711   1.000
    C371    C    0.65178   0.18447   0.18711   1.000
    C372    C    0.39271   0.09960   0.84372   1.000
    C373    C    0.89274   0.09950   0.84360   1.000
    C374    C    0.28500   0.06946   0.76796   1.000
    C375    C    0.78499   0.06944   0.76792   1.000
    C376    C    0.31849   0.00255   0.81538   1.000
    C377    C    0.81849   0.00249   0.81528   1.000
    C378    C    0.05921   0.25604   0.10020   1.000
    C379    C    0.55922   0.25602   0.10010   1.000
    C380    C    0.45162   0.30161   0.06959   1.000
    C381    C    0.95163   0.30166   0.06963   1.000
    C382    C    0.48516   0.18767   0.00291   1.000
    C383    C    0.98516   0.18774   0.00291   1.000
    C384    C    0.22635   0.84562   0.74630   1.000
    C385    C    0.72636   0.84563   0.74630   1.000
    C386    C    0.11879   0.77024   0.69909   1.000
    C387    C    0.61880   0.77024   0.69909   1.000
    C388    C    0.15149   0.81559   0.81327   1.000
    C389    C    0.65150   0.81558   0.81326   1.000
    C390    C    0.39252   0.90200   0.15565   1.000
    C391    C    0.89252   0.90191   0.15557   1.000
    C392    C    0.28527   0.93065   0.23185   1.000
    C393    C    0.78529   0.93061   0.23184   1.000
    C394    C    0.31826   0.99973   0.18664   1.000
    C395    C    0.81830   0.99969   0.18666   1.000
    C396    C    0.10733   0.84383   0.09972   1.000
    C397    C    0.60732   0.84374   0.09962   1.000
    C398    C    0.21497   0.76796   0.06952   1.000
    C399    C    0.71500   0.76796   0.06946   1.000
    C400    C    0.18149   0.81521   0.00251   1.000
    C401    C    0.68153   0.81530   0.00249   1.000
    C402    C    0.44073   0.89995   0.74417   1.000
    C403    C    0.94074   0.89991   0.74414   1.000
    C404    C    0.04825   0.93048   0.69851   1.000
    C405    C    0.54825   0.93052   0.69854   1.000
    C406    C    0.01477   0.99717   0.81252   1.000
    C407    C    0.51479   0.99718   0.81250   1.000
    C408    C    0.27370   0.25370   0.15400   1.000
    C409    C    0.77371   0.25370   0.15408   1.000
    C410    C    0.38134   0.30105   0.22949   1.000
    C411    C    0.88135   0.30104   0.22948   1.000
    C412    C    0.34848   0.18697   0.18450   1.000
    C413    C    0.84849   0.18696   0.18457   1.000
    C414    C    0.10751   0.15553   0.90180   1.000
    C415    C    0.60753   0.15545   0.90176   1.000
    C416    C    0.21470   0.23182   0.93055   1.000
    C417    C    0.71470   0.23180   0.93053   1.000
    C418    C    0.18167   0.18668   0.99965   1.000
    C419    C    0.68168   0.18666   0.99960   1.000
    C420    C    0.44084   0.10044   0.25604   1.000
    C421    C    0.94081   0.10030   0.25605   1.000
    C422    C    0.04835   0.06966   0.30167   1.000
    C423    C    0.54834   0.06969   0.30167   1.000
    C424    C    0.01482   0.00297   0.18773   1.000
    C425    C    0.51480   0.00304   0.18774   1.000
    C426    C    0.27366   0.74630   0.84570   1.000
    C427    C    0.77367   0.74630   0.84577   1.000
    C428    C    0.38116   0.69902   0.77026   1.000
    C429    C    0.88117   0.69902   0.77027   1.000
    C430    C    0.34848   0.81314   0.81552   1.000
    C431    C    0.84849   0.81314   0.81553   1.000
    O432    O    0.55126   0.26530   0.02154   1.000
    O433    O    0.60663   0.31055   0.02817   1.000
    O434    O    0.55977   0.28223   0.97172   1.000
    O435    O    0.61523   0.24392   0.97900   1.000
    O436    O    0.11527   0.75634   0.02105   1.000
    O437    O    0.05981   0.71797   0.02838   1.000
    O438    O    0.10662   0.68973   0.97195   1.000
    O439    O    0.05133   0.73498   0.97862   1.000
    O440    O    0.05128   0.26538   0.02165   1.000
    O441    O    0.10667   0.31065   0.02829   1.000
    O442    O    0.05979   0.28232   0.97185   1.000
    O443    O    0.11524   0.24400   0.97911   1.000
    O444    O    0.66442   0.80187   0.02259   1.000
    O445    O    0.16437   0.80183   0.02226   1.000
    O446    O    0.00224   0.22118   0.02301   1.000
    O447    O    0.50224   0.22111   0.02299   1.000
    O448    O    0.18112   0.77820   0.05576   1.000
    O449    O    0.12729   0.81614   0.07086   1.000
    O450    O    0.68116   0.77820   0.05607   1.000
    O451    O    0.62732   0.81609   0.07115   1.000
    O452    O    0.61537   0.75632   0.02131   1.000
    O453    O    0.48547   0.27809   0.05634   1.000
    O454    O    0.53927   0.25529   0.07159   1.000
    O455    O    0.98548   0.27814   0.05638   1.000
    O456    O    0.03927   0.25533   0.07166   1.000
    O457    O    0.67181   0.34488   0.06924   1.000
    O458    O    0.60775   0.37793   0.07062   1.000
    O459    O    0.49501   0.72498   0.06950   1.000
    O460    O    0.55874   0.69284   0.07065   1.000
    O461    O    0.56000   0.71791   0.02816   1.000
    O462    O    0.17185   0.34495   0.06931   1.000
    O463    O    0.10784   0.37805   0.07073   1.000
    O464    O    0.99474   0.72506   0.06969   1.000
    O465    O    0.05845   0.69298   0.07096   1.000
    O466    O    0.73186   0.31995   0.07230   1.000
    O467    O    0.23187   0.31998   0.07237   1.000
    O468    O    0.43535   0.75349   0.07280   1.000
    O469    O    0.93507   0.75351   0.07290   1.000
    O470    O    0.61335   0.66363   0.07531   1.000
    O471    O    0.55289   0.41159   0.07545   1.000
    O472    O    0.05301   0.41176   0.07559   1.000
    O473    O    0.11304   0.66383   0.07571   1.000
    O474    O    0.73259   0.37645   0.10829   1.000
    O475    O    0.23266   0.37649   0.10833   1.000
    O476    O    0.43438   0.73274   0.10882   1.000
    O477    O    0.93401   0.73278   0.10891   1.000
    O478    O    0.60442   0.44258   0.11108   1.000
    O479    O    0.56192   0.66846   0.11115   1.000
    O480    O    0.10458   0.44272   0.11120   1.000
    O481    O    0.06152   0.66865   0.11149   1.000
    O482    O    0.78398   0.40778   0.14438   1.000
    O483    O    0.72945   0.44094   0.14838   1.000
    O484    O    0.28408   0.40777   0.14440   1.000
    O485    O    0.22960   0.44099   0.14842   1.000
    O486    O    0.38308   0.73767   0.14511   1.000
    O487    O    0.43733   0.70809   0.14888   1.000
    O488    O    0.88261   0.73768   0.14511   1.000
    O489    O    0.93684   0.70815   0.14900   1.000
    O490    O    0.60548   0.49954   0.14844   1.000
    O491    O    0.66533   0.47402   0.14980   1.000
    O492    O    0.10572   0.49968   0.14849   1.000
    O493    O    0.16554   0.47412   0.14985   1.000
    O494    O    0.56071   0.64869   0.14852   1.000
    O495    O    0.50113   0.67595   0.15006   1.000
    O496    O    0.06024   0.64892   0.14888   1.000
    O497    O    0.00064   0.67609   0.15031   1.000
    O498    O    0.29385   0.25366   0.18209   1.000
    O499    O    0.79385   0.25365   0.18209   1.000
    O500    O    0.87262   0.93003   0.18373   1.000
    O501    O    0.37260   0.93012   0.18379   1.000
    O502    O    0.72858   0.50737   0.19026   1.000
    O503    O    0.22889   0.50741   0.19029   1.000
    O504    O    0.43796   0.68328   0.19072   1.000
    O505    O    0.93739   0.68330   0.19085   1.000
    O506    O    0.33123   0.22029   0.19734   1.000
    O507    O    0.83124   0.22028   0.19733   1.000
    O508    O    0.33547   0.97898   0.19928   1.000
    O509    O    0.83551   0.97892   0.19928   1.000
    O510    O    0.16898   0.19792   0.22056   1.000
    O511    O    0.66898   0.19792   0.22056   1.000
    O512    O    0.99772   0.02309   0.22118   1.000
    O513    O    0.49769   0.02318   0.22119   1.000
    O514    O    0.84767   0.27732   0.21979   1.000
    O515    O    0.78217   0.26455   0.24245   1.000
    O516    O    0.34766   0.27733   0.21984   1.000
    O517    O    0.28216   0.26456   0.24249   1.000
    O518    O    0.81901   0.94438   0.22187   1.000
    O519    O    0.88470   0.97923   0.24404   1.000
    O520    O    0.31897   0.94444   0.22189   1.000
    O521    O    0.38462   0.97937   0.24407   1.000
    O522    O    0.72992   0.57067   0.22781   1.000
    O523    O    0.78619   0.53764   0.23032   1.000
    O524    O    0.23055   0.57076   0.22778   1.000
    O525    O    0.28652   0.53753   0.23034   1.000
    O526    O    0.43634   0.65744   0.22842   1.000
    O527    O    0.38036   0.69312   0.23075   1.000
    O528    O    0.93597   0.65756   0.22862   1.000
    O529    O    0.87957   0.69278   0.23070   1.000
    O530    O    0.60188   0.31956   0.24628   1.000
    O531    O    0.10183   0.31950   0.24627   1.000
    O532    O    0.56458   0.92756   0.24694   1.000
    O533    O    0.06485   0.92749   0.24692   1.000
    O534    O    0.23075   0.64994   0.26909   1.000
    O535    O    0.72947   0.64982   0.26910   1.000
    O536    O    0.43575   0.61947   0.26977   1.000
    O537    O    0.93563   0.61968   0.26998   1.000
    O538    O    0.86889   0.56795   0.27198   1.000
    O539    O    0.36908   0.56777   0.27194   1.000
    O540    O    0.79608   0.70372   0.27169   1.000
    O541    O    0.29741   0.70408   0.27181   1.000
    O542    O    0.61676   0.85518   0.26256   1.000
    O543    O    0.11721   0.85516   0.26262   1.000
    O544    O    0.04936   0.40770   0.26269   1.000
    O545    O    0.54947   0.40780   0.26275   1.000
    O546    O    0.70612   0.18370   0.25496   1.000
    O547    O    0.71827   0.24344   0.26440   1.000
    O548    O    0.65239   0.22170   0.27766   1.000
    O549    O    0.20611   0.18370   0.25497   1.000
    O550    O    0.21826   0.24344   0.26441   1.000
    O551    O    0.15238   0.22170   0.27766   1.000
    O552    O    0.96072   0.07176   0.25534   1.000
    O553    O    0.94866   0.02177   0.26541   1.000
    O554    O    0.01449   0.05644   0.27815   1.000
    O555    O    0.46071   0.07188   0.25534   1.000
    O556    O    0.44858   0.02191   0.26543   1.000
    O557    O    0.51446   0.05651   0.27815   1.000
    O558    O    0.10090   0.37615   0.26709   1.000
    O559    O    0.16179   0.34439   0.27425   1.000
    O560    O    0.60098   0.37622   0.26713   1.000
    O561    O    0.66185   0.34442   0.27428   1.000
    O562    O    0.06583   0.89141   0.26754   1.000
    O563    O    0.00513   0.93068   0.27528   1.000
    O564    O    0.56548   0.89150   0.26750   1.000
    O565    O    0.50488   0.93084   0.27535   1.000
    O566    O    0.10390   0.44073   0.29182   1.000
    O567    O    0.56248   0.85140   0.29210   1.000
    O568    O    0.60402   0.44081   0.29191   1.000
    O569    O    0.06294   0.85127   0.29210   1.000
    O570    O    0.72697   0.31001   0.28105   1.000
    O571    O    0.77382   0.28191   0.30935   1.000
    O572    O    0.22694   0.31001   0.28104   1.000
    O573    O    0.27380   0.28193   0.30937   1.000
    O574    O    0.94011   0.97202   0.28239   1.000
    O575    O    0.89324   0.02844   0.31070   1.000
    O576    O    0.43994   0.97221   0.28246   1.000
    O577    O    0.39312   0.02863   0.31073   1.000
    O578    O    0.22584   0.37734   0.30588   1.000
    O579    O    0.72591   0.37734   0.30591   1.000
    O580    O    0.94137   0.92938   0.30727   1.000
    O581    O    0.44111   0.92966   0.30742   1.000
    O582    O    0.70234   0.72841   0.29618   1.000
    O583    O    0.61945   0.76953   0.30717   1.000
    O584    O    0.20356   0.72844   0.29636   1.000
    O585    O    0.12011   0.76946   0.30734   1.000
    O586    O    0.89914   0.24752   0.31893   1.000
    O587    O    0.46262   0.56847   0.29778   1.000
    O588    O    0.54672   0.53836   0.30867   1.000
    O589    O    0.96239   0.56849   0.29789   1.000
    O590    O    0.04646   0.53827   0.30865   1.000
    O591    O    0.39914   0.24756   0.31911   1.000
    O592    O    0.76800   0.07247   0.32005   1.000
    O593    O    0.26787   0.07262   0.32008   1.000
    O594    O    0.76902   0.73098   0.35030   1.000
    O595    O    0.27006   0.73108   0.35044   1.000
    O596    O    0.39512   0.61997   0.35089   1.000
    O597    O    0.89506   0.62013   0.35099   1.000
    O598    O    0.10473   0.50735   0.31687   1.000
    O599    O    0.16803   0.47369   0.32340   1.000
    O600    O    0.60489   0.50742   0.31699   1.000
    O601    O    0.66817   0.47373   0.32353   1.000
    O602    O    0.06238   0.80942   0.31694   1.000
    O603    O    0.99911   0.84995   0.32410   1.000
    O604    O    0.56184   0.80957   0.31698   1.000
    O605    O    0.49864   0.85020   0.32426   1.000
    O606    O    0.56346   0.77188   0.34283   1.000
    O607    O    0.06389   0.77179   0.34282   1.000
    O608    O    0.10422   0.57061   0.34224   1.000
    O609    O    0.60432   0.57071   0.34250   1.000
    O610    O    0.22909   0.44205   0.33029   1.000
    O611    O    0.28071   0.41086   0.33467   1.000
    O612    O    0.72920   0.44206   0.33039   1.000
    O613    O    0.78080   0.41084   0.33426   1.000
    O614    O    0.93824   0.88879   0.33153   1.000
    O615    O    0.88675   0.92460   0.33634   1.000
    O616    O    0.43787   0.88913   0.33174   1.000
    O617    O    0.38646   0.92500   0.33656   1.000
    O618    O    0.22786   0.49910   0.35024   1.000
    O619    O    0.72801   0.49912   0.35013   1.000
    O620    O    0.93948   0.85136   0.35121   1.000
    O621    O    0.43904   0.85172   0.35146   1.000
    O622    O    0.33903   0.27538   0.34386   1.000
    O623    O    0.39973   0.26811   0.37575   1.000
    O624    O    0.83904   0.27534   0.34388   1.000
    O625    O    0.89973   0.26807   0.37576   1.000
    O626    O    0.77486   0.30683   0.37671   1.000
    O627    O    0.27484   0.30685   0.37673   1.000
    O628    O    0.82803   0.06945   0.34502   1.000
    O629    O    0.76724   0.10850   0.37657   1.000
    O630    O    0.32792   0.06963   0.34504   1.000
    O631    O    0.26711   0.10864   0.37661   1.000
    O632    O    0.89205   0.07089   0.37813   1.000
    O633    O    0.39197   0.07109   0.37813   1.000
    O634    O    0.10472   0.64942   0.38007   1.000
    O635    O    0.60465   0.64951   0.38030   1.000
    O636    O    0.06421   0.73049   0.38077   1.000
    O637    O    0.56399   0.73055   0.38083   1.000
    O638    O    0.03735   0.70240   0.43190   1.000
    O639    O    0.13087   0.72815   0.43250   1.000
    O640    O    0.53714   0.70250   0.43193   1.000
    O641    O    0.63069   0.72822   0.43254   1.000
    O642    O    0.76929   0.77219   0.42950   1.000
    O643    O    0.26956   0.77225   0.42971   1.000
    O644    O    0.39558   0.65765   0.42976   1.000
    O645    O    0.89566   0.65777   0.42983   1.000
    O646    O    0.95104   0.26349   0.40741   1.000
    O647    O    0.45104   0.26353   0.40744   1.000
    O648    O    0.71583   0.14459   0.40785   1.000
    O649    O    0.21570   0.14471   0.40793   1.000
    O650    O    0.89634   0.29247   0.44033   1.000
    O651    O    0.39633   0.29251   0.44036   1.000
    O652    O    0.77032   0.14864   0.44109   1.000
    O653    O    0.27022   0.14877   0.44114   1.000
    O654    O    0.71987   0.33552   0.41016   1.000
    O655    O    0.77128   0.33104   0.44141   1.000
    O656    O    0.21986   0.33554   0.41018   1.000
    O657    O    0.27127   0.33107   0.44144   1.000
    O658    O    0.94686   0.07576   0.41186   1.000
    O659    O    0.89531   0.11139   0.44282   1.000
    O660    O    0.44681   0.07596   0.41184   1.000
    O661    O    0.39525   0.11156   0.44283   1.000
    O662    O    0.45317   0.69149   0.46211   1.000
    O663    O    0.39518   0.68294   0.49308   1.000
    O664    O    0.95338   0.69143   0.46215   1.000
    O665    O    0.89531   0.68299   0.49312   1.000
    O666    O    0.71333   0.76963   0.46275   1.000
    O667    O    0.77094   0.80964   0.49285   1.000
    O668    O    0.21351   0.76959   0.46283   1.000
    O669    O    0.27104   0.80969   0.49305   1.000
    O670    O    0.83207   0.32397   0.47315   1.000
    O671    O    0.89506   0.31709   0.50690   1.000
    O672    O    0.33207   0.32400   0.47318   1.000
    O673    O    0.39505   0.31713   0.50694   1.000
    O674    O    0.77218   0.35074   0.49844   1.000
    O675    O    0.27217   0.35077   0.49847   1.000
    O676    O    0.83438   0.15009   0.47423   1.000
    O677    O    0.77108   0.19060   0.50753   1.000
    O678    O    0.33431   0.15023   0.47426   1.000
    O679    O    0.27101   0.19070   0.50755   1.000
    O680    O    0.89421   0.14872   0.49979   1.000
    O681    O    0.39416   0.14887   0.49980   1.000
    O682    O    0.89392   0.85149   0.50052   1.000
    O683    O    0.39397   0.85155   0.50068   1.000
    O684    O    0.77222   0.64970   0.50147   1.000
    O685    O    0.27211   0.64962   0.50146   1.000
    O686    O    0.83422   0.85008   0.52611   1.000
    O687    O    0.89511   0.88879   0.55750   1.000
    O688    O    0.33426   0.85016   0.52631   1.000
    O689    O    0.39514   0.88888   0.55766   1.000
    O690    O    0.77026   0.85144   0.55932   1.000
    O691    O    0.33202   0.67630   0.52680   1.000
    O692    O    0.27106   0.66945   0.55850   1.000
    O693    O    0.83213   0.67637   0.52685   1.000
    O694    O    0.77114   0.66951   0.55854   1.000
    O695    O    0.27029   0.85152   0.55952   1.000
    O696    O    0.39627   0.70772   0.55970   1.000
    O697    O    0.89638   0.70777   0.55976   1.000
    O698    O    0.71353   0.23078   0.53769   1.000
    O699    O    0.63064   0.27217   0.56776   1.000
    O700    O    0.21346   0.23087   0.53773   1.000
    O701    O    0.13054   0.27224   0.56784   1.000
    O702    O    0.95276   0.30815   0.53783   1.000
    O703    O    0.03661   0.29735   0.56813   1.000
    O704    O    0.45276   0.30819   0.53787   1.000
    O705    O    0.53667   0.29734   0.56812   1.000
    O706    O    0.89542   0.34240   0.57021   1.000
    O707    O    0.39542   0.34245   0.57024   1.000
    O708    O    0.26940   0.22817   0.57093   1.000
    O709    O    0.76944   0.22809   0.57092   1.000
    O710    O    0.94663   0.92445   0.58844   1.000
    O711    O    0.44664   0.92456   0.58860   1.000
    O712    O    0.71957   0.66518   0.58975   1.000
    O713    O    0.21950   0.66514   0.58974   1.000
    O714    O    0.89190   0.92923   0.62214   1.000
    O715    O    0.39190   0.92933   0.62232   1.000
    O716    O    0.27446   0.69378   0.62326   1.000
    O717    O    0.77452   0.69382   0.62328   1.000
    O718    O    0.71587   0.85536   0.59262   1.000
    O719    O    0.76726   0.89149   0.62389   1.000
    O720    O    0.21589   0.85543   0.59276   1.000
    O721    O    0.26726   0.89158   0.62404   1.000
    O722    O    0.45093   0.73668   0.59270   1.000
    O723    O    0.39947   0.73228   0.62430   1.000
    O724    O    0.95103   0.73671   0.59278   1.000
    O725    O    0.89955   0.73231   0.62436   1.000
    O726    O    0.89495   0.38015   0.64908   1.000
    O727    O    0.39493   0.38020   0.64912   1.000
    O728    O    0.76890   0.26936   0.65005   1.000
    O729    O    0.26886   0.26941   0.65008   1.000
    O730    O    0.56391   0.26956   0.61919   1.000
    O731    O    0.60321   0.35100   0.61956   1.000
    O732    O    0.06382   0.26959   0.61923   1.000
    O733    O    0.10313   0.35103   0.61961   1.000
    O734    O    0.93906   0.14849   0.64863   1.000
    O735    O    0.43905   0.14853   0.64869   1.000
    O736    O    0.72654   0.50144   0.64969   1.000
    O737    O    0.22652   0.50145   0.64972   1.000
    O738    O    0.56360   0.22814   0.65717   1.000
    O739    O    0.06356   0.22814   0.65719   1.000
    O740    O    0.60209   0.43014   0.65731   1.000
    O741    O    0.10207   0.43015   0.65734   1.000
    O742    O    0.88648   0.07522   0.66349   1.000
    O743    O    0.38646   0.07530   0.66360   1.000
    O744    O    0.82800   0.93057   0.65532   1.000
    O745    O    0.89309   0.97166   0.68951   1.000
    O746    O    0.32799   0.93068   0.65550   1.000
    O747    O    0.39309   0.97175   0.68967   1.000
    O748    O    0.77977   0.58953   0.66511   1.000
    O749    O    0.27975   0.58953   0.66538   1.000
    O750    O    0.76816   0.92748   0.68046   1.000
    O751    O    0.26815   0.92758   0.68060   1.000
    O752    O    0.33863   0.72519   0.65616   1.000
    O753    O    0.27336   0.71869   0.69066   1.000
    O754    O    0.83868   0.72522   0.65619   1.000
    O755    O    0.77340   0.71870   0.69067   1.000
    O756    O    0.39873   0.75295   0.68095   1.000
    O757    O    0.89879   0.75297   0.68101   1.000
    O758    O    0.93789   0.11106   0.66833   1.000
    O759    O    0.99866   0.14996   0.67583   1.000
    O760    O    0.43789   0.11112   0.66841   1.000
    O761    O    0.49867   0.15000   0.67588   1.000
    O762    O    0.72794   0.55849   0.66937   1.000
    O763    O    0.66668   0.52697   0.67639   1.000
    O764    O    0.22793   0.55849   0.66965   1.000
    O765    O    0.16667   0.52698   0.67643   1.000
    O766    O    0.94112   0.07052   0.69263   1.000
    O767    O    0.44112   0.07060   0.69273   1.000
    O768    O    0.72494   0.62324   0.69378   1.000
    O769    O    0.22493   0.62324   0.69405   1.000
    O770    O    0.60315   0.49346   0.68294   1.000
    O771    O    0.54493   0.46279   0.69164   1.000
    O772    O    0.10314   0.49347   0.68298   1.000
    O773    O    0.04491   0.46280   0.69166   1.000
    O774    O    0.06187   0.19054   0.68311   1.000
    O775    O    0.11947   0.23058   0.69298   1.000
    O776    O    0.56190   0.19056   0.68313   1.000
    O777    O    0.61950   0.23058   0.69298   1.000
    O778    O    0.06250   0.14871   0.70791   1.000
    O779    O    0.56252   0.14875   0.70792   1.000
    O780    O    0.60259   0.56008   0.70786   1.000
    O781    O    0.10258   0.56009   0.70791   1.000
    O782    O    0.01440   0.94373   0.72205   1.000
    O783    O    0.51440   0.94377   0.72210   1.000
    O784    O    0.96166   0.43223   0.70250   1.000
    O785    O    0.86859   0.43193   0.72816   1.000
    O786    O    0.93562   0.38022   0.72985   1.000
    O787    O    0.46165   0.43224   0.70252   1.000
    O788    O    0.36855   0.43198   0.72824   1.000
    O789    O    0.43559   0.38025   0.72988   1.000
    O790    O    0.15245   0.77996   0.72286   1.000
    O791    O    0.65246   0.77996   0.72286   1.000
    O792    O    0.70215   0.27188   0.70406   1.000
    O793    O    0.79543   0.29713   0.72898   1.000
    O794    O    0.72830   0.35054   0.73053   1.000
    O795    O    0.20211   0.27190   0.70407   1.000
    O796    O    0.29538   0.29717   0.72901   1.000
    O797    O    0.22825   0.35058   0.73058   1.000
    O798    O    0.93991   0.02802   0.71768   1.000
    O799    O    0.00488   0.06932   0.72473   1.000
    O800    O    0.43992   0.02810   0.71779   1.000
    O801    O    0.50489   0.06939   0.72481   1.000
    O802    O    0.72633   0.69062   0.71889   1.000
    O803    O    0.66090   0.65633   0.72547   1.000
    O804    O    0.22631   0.69062   0.71890   1.000
    O805    O    0.16089   0.65634   0.72550   1.000
    O806    O    0.94853   0.97839   0.73481   1.000
    O807    O    0.88459   0.02121   0.75617   1.000
    O808    O    0.44854   0.97845   0.73489   1.000
    O809    O    0.38460   0.02129   0.75628   1.000
    O810    O    0.21801   0.75738   0.73592   1.000
    O811    O    0.28186   0.73582   0.75747   1.000
    O812    O    0.71802   0.75739   0.73592   1.000
    O813    O    0.78187   0.73582   0.75747   1.000
    O814    O    0.59981   0.62469   0.73253   1.000
    O815    O    0.54810   0.59329   0.73691   1.000
    O816    O    0.09980   0.62470   0.73257   1.000
    O817    O    0.04810   0.59330   0.73695   1.000
    O818    O    0.56551   0.10867   0.73254   1.000
    O819    O    0.61681   0.14493   0.73745   1.000
    O820    O    0.06548   0.10861   0.73250   1.000
    O821    O    0.11678   0.14490   0.73745   1.000
    O822    O    0.06455   0.07260   0.75321   1.000
    O823    O    0.56458   0.07266   0.75328   1.000
    O824    O    0.60087   0.68131   0.75326   1.000
    O825    O    0.10087   0.68132   0.75320   1.000
    O826    O    0.96065   0.92845   0.74487   1.000
    O827    O    0.46064   0.92849   0.74491   1.000
    O828    O    0.99766   0.97708   0.77906   1.000
    O829    O    0.49767   0.97710   0.77908   1.000
    O830    O    0.70624   0.81765   0.74646   1.000
    O831    O    0.20623   0.81765   0.74646   1.000
    O832    O    0.16880   0.80263   0.77995   1.000
    O833    O    0.66881   0.80263   0.77994   1.000
    O834    O    0.78544   0.46217   0.76960   1.000
    O835    O    0.28539   0.46222   0.76970   1.000
    O836    O    0.87896   0.30807   0.76999   1.000
    O837    O    0.37891   0.30809   0.77002   1.000
    O838    O    0.93587   0.34246   0.77132   1.000
    O839    O    0.43584   0.34247   0.77133   1.000
    O840    O    0.72843   0.42948   0.77152   1.000
    O841    O    0.22838   0.42952   0.77160   1.000
    O842    O    0.81883   0.05603   0.77812   1.000
    O843    O    0.31884   0.05608   0.77820   1.000
    O844    O    0.34749   0.72278   0.77999   1.000
    O845    O    0.84750   0.72278   0.78000   1.000
    O846    O    0.72777   0.49274   0.80941   1.000
    O847    O    0.93715   0.31705   0.80939   1.000
    O848    O    0.43712   0.31704   0.80939   1.000
    O849    O    0.22771   0.49278   0.80953   1.000
    O850    O    0.83558   0.02256   0.80180   1.000
    O851    O    0.87270   0.07106   0.81596   1.000
    O852    O    0.33559   0.02262   0.80191   1.000
    O853    O    0.37269   0.07115   0.81608   1.000
    O854    O    0.83116   0.77984   0.80263   1.000
    O855    O    0.79375   0.74643   0.81775   1.000
    O856    O    0.33115   0.77984   0.80262   1.000
    O857    O    0.29374   0.74642   0.81771   1.000
    O858    O    0.50049   0.32409   0.84978   1.000
    O859    O    0.43668   0.29214   0.85120   1.000
    O860    O    0.00051   0.32413   0.84984   1.000
    O861    O    0.93671   0.29217   0.85122   1.000
    O862    O    0.66480   0.52626   0.85002   1.000
    O863    O    0.72896   0.55921   0.85129   1.000
    O864    O    0.16473   0.52627   0.85016   1.000
    O865    O    0.22886   0.55925   0.85142   1.000
    O866    O    0.56011   0.35119   0.85116   1.000
    O867    O    0.06011   0.35124   0.85122   1.000
    O868    O    0.60497   0.50085   0.85148   1.000
    O869    O    0.10492   0.50085   0.85167   1.000
    O870    O    0.78357   0.59223   0.85514   1.000
    O871    O    0.38243   0.26269   0.85515   1.000
    O872    O    0.88247   0.26271   0.85518   1.000
    O873    O    0.28343   0.59230   0.85528   1.000
    O874    O    0.56146   0.33143   0.88855   1.000
    O875    O    0.06146   0.33151   0.88863   1.000
    O876    O    0.60410   0.55779   0.88889   1.000
    O877    O    0.10403   0.55779   0.88906   1.000
    O878    O    0.43390   0.26750   0.89130   1.000
    O879    O    0.93394   0.26755   0.89133   1.000
    O880    O    0.73233   0.62369   0.89139   1.000
    O881    O    0.23220   0.62373   0.89154   1.000
    O882    O    0.53933   0.74495   0.92846   1.000
    O883    O    0.03933   0.74494   0.92860   1.000
    O884    O    0.62739   0.18363   0.92988   1.000
    O885    O    0.12738   0.18370   0.92992   1.000
    O886    O    0.61302   0.33620   0.92431   1.000
    O887    O    0.55844   0.30711   0.92912   1.000
    O888    O    0.11301   0.33629   0.92437   1.000
    O889    O    0.05844   0.30720   0.92918   1.000
    O890    O    0.55277   0.58889   0.92466   1.000
    O891    O    0.60767   0.62241   0.92936   1.000
    O892    O    0.05272   0.58886   0.92491   1.000
    O893    O    0.10759   0.62241   0.92956   1.000
    O894    O    0.43500   0.24678   0.92731   1.000
    O895    O    0.49470   0.27513   0.93046   1.000
    O896    O    0.93503   0.24684   0.92735   1.000
    O897    O    0.99473   0.27520   0.93051   1.000
    O898    O    0.73171   0.68024   0.92741   1.000
    O899    O    0.67175   0.65535   0.93060   1.000
    O900    O    0.23156   0.68028   0.92753   1.000
    O901    O    0.17163   0.65537   0.93078   1.000
    O902    O    0.48558   0.72216   0.94377   1.000
    O903    O    0.68097   0.22181   0.94427   1.000
    O904    O    0.98554   0.72216   0.94385   1.000
    O905    O    0.18098   0.22185   0.94430   1.000
    O906    O    0.60674   0.68971   0.97177   1.000
    O907    O    0.50230   0.77917   0.97710   1.000
    O908    O    0.55141   0.73497   0.97847   1.000
    O909    O    0.00227   0.77917   0.97719   1.000
    O910    O    0.66446   0.19924   0.97881   1.000
    O911    O    0.16446   0.19928   0.97885   1.000
loop_
    _geom_bond_atom_site_label_1
    _geom_bond_atom_site_label_2
    _geom_bond_distance
    _geom_bond_site_symmetry_2
    _ccdc_geom_bond_type
    C307   O432      0.78391      .   S
    C171   O432      0.78391      .   S
    C307   O433      0.77350      .   S
    C265   O433      0.77350      .   S
    C307   O434      0.77165  1_554   S
    C169   O434      0.77165      .   S
    C307   O435      0.78208  1_554   S
    C267   O435      0.78208      .   S
    C300   O436      0.78174      .   S
    C218   O436      0.78174      .   S
    C300   O437      0.77312      .   S
    C120   O437      0.77312      .   S
    C300   O438      0.77253  1_554   S
    C216   O438      0.77253      .   S
    C300   O439      0.78276  1_554   S
    C122   O439      0.78276      .   S
    C306   O440      0.78314      .   S
    C170   O440      0.78314      .   S
    C306   O441      0.77319      .   S
    C264   O441      0.77319      .   S
    C306   O442      0.77270  1_554   S
    C168   O442      0.77270      .   S
    C306   O443      0.78236  1_554   S
    C266   O443      0.78236      .   S
    C401   O444      0.67960      .   S
    C219   O444      0.67960      .   S
    C400   O445      0.67243      .   S
    C218   O445      0.67243      .   S
    C383   O446      0.67969  1_655   S
    C170   O446      0.67969      .   S
    C382   O447      0.67975      .   S
    C171   O447      0.67975      .   S
    C218   O448      0.68676      .   S
    C398   O448      0.68676      .   S
    C218   O449      0.68153      .   S
    C396   O449      0.68153      .   S
    C219   O450      0.68178      .   S
    C399   O450      0.68178      .   S
    C219   O451      0.67748      .   S
    C397   O451      0.67748      .   S
    C219   O452      0.78280      .   S
    C301   O452      0.78280  1_556   S
    C171   O453      0.68150      .   S
    C380   O453      0.68150      .   S
    C171   O454      0.67726      .   S
    C379   O454      0.67726      .   S
    C170   O455      0.68141  1_455   S
    C381   O455      0.68141      .   S
    C170   O456      0.67799      .   S
    C378   O456      0.67799      .   S
    C265   O457      0.70084      .   S
    C259   O457      0.70084      .   S
    C265   O458      0.70277      .   S
    C263   O458      0.70277      .   S
    C121   O459      0.70082      .   S
    C114   O459      0.70082      .   S
    C121   O460      0.70293      .   S
    C119   O460      0.70293      .   S
    C121   O461      0.77236      .   S
    C301   O461      0.77236  1_556   S
    C264   O462      0.70084      .   S
    C258   O462      0.70084      .   S
    C264   O463      0.70277      .   S
    C262   O463      0.70277      .   S
    C120   O464      0.70075  1_455   S
    C115   O464      0.70075      .   S
    C120   O465      0.70263      .   S
    C118   O465      0.70263      .   S
    C87    O466      0.54242      .   S
    C259   O466      0.54242      .   S
    C86    O467      0.54243      .   S
    C258   O467      0.54243      .   S
    C14    O468      0.54294      .   S
    C114   O468      0.54294      .   S
    C15    O469      0.54260      .   S
    C115   O469      0.54260      .   S
    C19    O470      0.54442      .   S
    C119   O470      0.54442      .   S
    C91    O471      0.54423      .   S
    C263   O471      0.54423      .   S
    C90    O472      0.54448      .   S
    C262   O472      0.54448      .   S
    C18    O473      0.54443      .   S
    C118   O473      0.54443      .   S
    C259   O474      0.69579      .   S
    C257   O474      0.69579      .   S
    C258   O475      0.69579      .   S
    C256   O475      0.69579      .   S
    C114   O476      0.69575      .   S
    C112   O476      0.69575      .   S
    C115   O477      0.69584      .   S
    C113   O477      0.69584      .   S
    C263   O478      0.69618      .   S
    C261   O478      0.69618      .   S
    C119   O479      0.69588      .   S
    C117   O479      0.69588      .   S
    C262   O480      0.69607      .   S
    C260   O480      0.69607      .   S
    C118   O481      0.69593      .   S
    C116   O481      0.69593      .   S
    C257   O482      0.54412      .   S
    C85    O482      0.54412      .   S
    C257   O483      0.69997      .   S
    C255   O483      0.69997      .   S
    C256   O484      0.54410      .   S
    C84    O484      0.54410      .   S
    C256   O485      0.70003      .   S
    C254   O485      0.70003      .   S
    C112   O486      0.54409      .   S
    C12    O486      0.54409      .   S
    C112   O487      0.70017      .   S
    C110   O487      0.70017      .   S
    C113   O488      0.54413      .   S
    C13    O488      0.54413      .   S
    C113   O489      0.70014      .   S
    C111   O489      0.70014      .   S
    C261   O490      0.54417      .   S
    C89    O490      0.54417      .   S
    C261   O491      0.70111      .   S
    C255   O491      0.70111      .   S
    C260   O492      0.54419      .   S
    C88    O492      0.54419      .   S
    C260   O493      0.70115      .   S
    C254   O493      0.70115      .   S
    C117   O494      0.54412      .   S
    C17    O494      0.54412      .   S
    C117   O495      0.70098      .   S
    C110   O495      0.70098      .   S
    C116   O496      0.54414      .   S
    C16    O496      0.54414      .   S
    C116   O497      0.70097      .   S
    C111   O497      0.70097  1_655   S
    C408   O498      0.67783      .   S
    C250   O498      0.67783      .   S
    C409   O499      0.67636      .   S
    C251   O499      0.67636      .   S
    C391   O500      0.67815      .   S
    C203   O500      0.67815      .   S
    C390   O501      0.67815      .   S
    C202   O501      0.67815      .   S
    C255   O502      0.74711      .   S
    C253   O502      0.74711      .   S
    C254   O503      0.74719      .   S
    C252   O503      0.74719      .   S
    C110   O504      0.74686      .   S
    C108   O504      0.74686      .   S
    C111   O505      0.74734      .   S
    C109   O505      0.74734      .   S
    C412   O506      0.67917      .   S
    C250   O506      0.67917      .   S
    C413   O507      0.67937      .   S
    C251   O507      0.67937      .   S
    C394   O508      0.67945      .   S
    C202   O508      0.67945      .   S
    C395   O509      0.67958      .   S
    C203   O509      0.67958      .   S
    C370   O510      0.67960      .   S
    C138   O510      0.67960      .   S
    C371   O511      0.67952      .   S
    C139   O511      0.67952      .   S
    C424   O512      0.67976  1_455   S
    C283   O512      0.67976      .   S
    C425   O513      0.67981      .   S
    C282   O513      0.67981      .   S
    C251   O514      0.68275      .   S
    C411   O514      0.68275      .   S
    C251   O515      0.78399      .   S
    C303   O515      0.78399      .   S
    C250   O516      0.68280      .   S
    C410   O516      0.68280      .   S
    C250   O517      0.78346      .   S
    C302   O517      0.78346      .   S
    C203   O518      0.68239      .   S
    C393   O518      0.68239      .   S
    C203   O519      0.78232      .   S
    C311   O519      0.78232  1_545   S
    C202   O520      0.68239      .   S
    C392   O520      0.68239      .   S
    C202   O521      0.78219      .   S
    C310   O521      0.78219  1_545   S
    C253   O522      0.64050      .   S
    C349   O522      0.64050      .   S
    C253   O523      0.63584      .   S
    C351   O523      0.63584      .   S
    C252   O524      0.64043      .   S
    C348   O524      0.64043      .   S
    C252   O525      0.63598      .   S
    C350   O525      0.63598      .   S
    C108   O526      0.64055      .   S
    C312   O526      0.64055      .   S
    C108   O527      0.63581      .   S
    C314   O527      0.63581      .   S
    C109   O528      0.64074      .   S
    C313   O528      0.64074      .   S
    C109   O529      0.63570      .   S
    C315   O529      0.63570      .   S
    C23    O530      0.54261      .   S
    C131   O530      0.54261      .   S
    C22    O531      0.54257      .   S
    C130   O531      0.54257      .   S
    C95    O532      0.54253      .   S
    C275   O532      0.54253      .   S
    C94    O533      0.54257      .   S
    C274   O533      0.54257      .   S
    C348   O534      0.98266      .   S
    C4     O534      0.98266      .   S
    C349   O535      0.98112      .   S
    C5     O535      0.98112      .   S
    C312   O536      0.98243      .   S
    C0     O536      0.98243      .   S
    C313   O537      0.98192      .   S
    C1     O537      0.98192      .   S
    C351   O538      0.98980      .   S
    C1     O538      0.98980      .   S
    C350   O539      0.98905      .   S
    C0     O539      0.98905      .   S
    C315   O540      0.99118      .   S
    C5     O540      0.99118      .   S
    C314   O541      0.98832      .   S
    C4     O541      0.98832      .   S
    C93    O542      0.54365      .   S
    C273   O542      0.54365      .   S
    C92    O543      0.54411      .   S
    C272   O543      0.54411      .   S
    C20    O544      0.54415      .   S
    C128   O544      0.54415      .   S
    C21    O545      0.54414      .   S
    C129   O545      0.54414      .   S
    C139   O546      0.67762      .   S
    C367   O546      0.67762      .   S
    C139   O547      0.78391      .   S
    C303   O547      0.78391      .   S
    C139   O548      0.68251      .   S
    C369   O548      0.68251      .   S
    C138   O549      0.67757      .   S
    C366   O549      0.67757      .   S
    C138   O550      0.78391      .   S
    C302   O550      0.78391      .   S
    C138   O551      0.68246      .   S
    C368   O551      0.68246      .   S
    C283   O552      0.67800      .   S
    C421   O552      0.67800      .   S
    C283   O553      0.78325      .   S
    C311   O553      0.78325      .   S
    C283   O554      0.68146  1_655   S
    C422   O554      0.68146      .   S
    C282   O555      0.67809      .   S
    C420   O555      0.67809      .   S
    C282   O556      0.78335      .   S
    C310   O556      0.78335      .   S
    C282   O557      0.68158      .   S
    C423   O557      0.68158      .   S
    C130   O558      0.69597      .   S
    C128   O558      0.69597      .   S
    C130   O559      0.70065      .   S
    C136   O559      0.70065      .   S
    C131   O560      0.69597      .   S
    C129   O560      0.69597      .   S
    C131   O561      0.70066      .   S
    C137   O561      0.70066      .   S
    C274   O562      0.69588      .   S
    C272   O562      0.69588      .   S
    C274   O563      0.70071      .   S
    C281   O563      0.70071  1_655   S
    C275   O564      0.69455      .   S
    C273   O564      0.69455      .   S
    C275   O565      0.70067      .   S
    C280   O565      0.70067      .   S
    C128   O566      0.70002      .   S
    C126   O566      0.70002      .   S
    C273   O567      0.70175      .   S
    C271   O567      0.70175      .   S
    C129   O568      0.70005      .   S
    C127   O568      0.70005      .   S
    C272   O569      0.70016      .   S
    C270   O569      0.70016      .   S
    C303   O570      0.77236      .   S
    C137   O570      0.77236      .   S
    C303   O571      0.77267      .   S
    C249   O571      0.77267      .   S
    C302   O572      0.77238      .   S
    C136   O572      0.77238      .   S
    C302   O573      0.77272      .   S
    C248   O573      0.77272      .   S
    C311   O574      0.77249  1_545   S
    C281   O574      0.77249      .   S
    C311   O575      0.77326      .   S
    C201   O575      0.77326      .   S
    C310   O576      0.77209  1_545   S
    C280   O576      0.77209      .   S
    C310   O577      0.77311      .   S
    C200   O577      0.77311      .   S
    C136   O578      0.70262      .   S
    C134   O578      0.70262      .   S
    C137   O579      0.70263      .   S
    C135   O579      0.70263      .   S
    C281   O580      0.70271      .   S
    C279   O580      0.70271      .   S
    C280   O581      0.70289      .   S
    C278   O581      0.70289      .   S
    C355   O582      0.98769      .   S
    C5     O582      0.98769      .   S
    C355   O583      0.63583      .   S
    C269   O583      0.63583      .   S
    C354   O584      0.99106      .   S
    C4     O584      0.99106      .   S
    C354   O585      0.63574      .   S
    C268   O585      0.63574      .   S
    C79    O586      0.54553      .   S
    C243   O586      0.54553      .   S
    C319   O587      0.99163      .   S
    C0     O587      0.99163      .   S
    C319   O588      0.63563      .   S
    C125   O588      0.63563      .   S
    C318   O589      0.99179  1_455   S
    C1     O589      0.99179      .   S
    C318   O590      0.63566      .   S
    C124   O590      0.63566      .   S
    C78    O591      0.54201      .   S
    C242   O591      0.54201      .   S
    C55    O592      0.54244      .   S
    C195   O592      0.54244      .   S
    C54    O593      0.54242      .   S
    C194   O593      0.54242      .   S
    C5     O594      0.98272      .   S
    C321   O594      0.98272      .   S
    C4     O595      0.98124      .   S
    C320   O595      0.98124      .   S
    C0     O596      0.98118      .   S
    C356   O596      0.98118      .   S
    C1     O597      0.98048      .   S
    C357   O597      0.98048      .   S
    C126   O598      0.74688      .   S
    C124   O598      0.74688      .   S
    C126   O599      0.70093      .   S
    C132   O599      0.70093      .   S
    C127   O600      0.74684      .   S
    C125   O600      0.74684      .   S
    C127   O601      0.70128      .   S
    C133   O601      0.70128      .   S
    C270   O602      0.74722      .   S
    C268   O602      0.74722      .   S
    C270   O603      0.70097  1_455   S
    C277   O603      0.70097      .   S
    C271   O604      0.74685      .   S
    C269   O604      0.74685      .   S
    C271   O605      0.70098      .   S
    C276   O605      0.70098      .   S
    C269   O606      0.64053      .   S
    C353   O606      0.64053      .   S
    C268   O607      0.64069      .   S
    C352   O607      0.64069      .   S
    C124   O608      0.64091      .   S
    C316   O608      0.64091      .   S
    C125   O609      0.64095      .   S
    C317   O609      0.64095      .   S
    C134   O610      0.69592      .   S
    C132   O610      0.69592      .   S
    C134   O611      0.54441      .   S
    C26    O611      0.54441      .   S
    C135   O612      0.69561      .   S
    C133   O612      0.69561      .   S
    C135   O613      0.54077      .   S
    C27    O613      0.54077      .   S
    C279   O614      0.69593      .   S
    C277   O614      0.69593      .   S
    C279   O615      0.54445      .   S
    C99    O615      0.54445      .   S
    C278   O616      0.69585      .   S
    C276   O616      0.69585      .   S
    C278   O617      0.54444      .   S
    C98    O617      0.54444      .   S
    C132   O618      0.54416      .   S
    C24    O618      0.54416      .   S
    C133   O619      0.54380      .   S
    C25    O619      0.54380      .   S
    C277   O620      0.54413      .   S
    C97    O620      0.54413      .   S
    C276   O621      0.54419      .   S
    C96    O621      0.54419      .   S
    C242   O622      0.70050      .   S
    C248   O622      0.70050      .   S
    C242   O623      0.69698      .   S
    C240   O623      0.69698      .   S
    C243   O624      0.70068      .   S
    C249   O624      0.70068      .   S
    C243   O625      0.69612      .   S
    C241   O625      0.69612      .   S
    C249   O626      0.70278      .   S
    C247   O626      0.70278      .   S
    C248   O627      0.70270      .   S
    C246   O627      0.70270      .   S
    C195   O628      0.70085      .   S
    C201   O628      0.70085      .   S
    C195   O629      0.69583      .   S
    C193   O629      0.69583      .   S
    C194   O630      0.70080      .   S
    C200   O630      0.70080      .   S
    C194   O631      0.69589      .   S
    C192   O631      0.69589      .   S
    C201   O632      0.70277      .   S
    C199   O632      0.70277      .   S
    C200   O633      0.70285      .   S
    C198   O633      0.70285      .   S
    C316   O634      0.98013      .   S
    C2     O634      0.98013      .   S
    C317   O635      0.98034      .   S
    C3     O635      0.98034      .   S
    C352   O636      0.98161      .   S
    C2     O636      0.98161      .   S
    C353   O637      0.98238      .   S
    C3     O637      0.98238      .   S
    C2     O638      0.99258      .   S
    C359   O638      0.99258  1_655   S
    C2     O639      0.98917      .   S
    C322   O639      0.98917      .   S
    C3     O640      0.99220      .   S
    C358   O640      0.99220      .   S
    C3     O641      0.98867      .   S
    C323   O641      0.98867      .   S
    C321   O642      0.64035      .   S
    C141   O642      0.64035      .   S
    C320   O643      0.64047      .   S
    C140   O643      0.64047      .   S
    C356   O644      0.64100      .   S
    C284   O644      0.64100      .   S
    C357   O645      0.64099      .   S
    C285   O645      0.64099      .   S
    C77    O646      0.54415      .   S
    C241   O646      0.54415      .   S
    C76    O647      0.54415      .   S
    C240   O647      0.54415      .   S
    C53    O648      0.54411      .   S
    C193   O648      0.54411      .   S
    C52    O649      0.54410      .   S
    C192   O649      0.54410      .   S
    C241   O650      0.70006      .   S
    C239   O650      0.70006      .   S
    C240   O651      0.70005      .   S
    C238   O651      0.70005      .   S
    C193   O652      0.70007      .   S
    C191   O652      0.70007      .   S
    C192   O653      0.70006      .   S
    C190   O653      0.70006      .   S
    C247   O654      0.54438      .   S
    C83    O654      0.54438      .   S
    C247   O655      0.69529      .   S
    C245   O655      0.69529      .   S
    C246   O656      0.54436      .   S
    C82    O656      0.54436      .   S
    C246   O657      0.69567      .   S
    C244   O657      0.69567      .   S
    C199   O658      0.54447      .   S
    C59    O658      0.54447      .   S
    C199   O659      0.69609      .   S
    C197   O659      0.69609      .   S
    C198   O660      0.54443      .   S
    C58    O660      0.54443      .   S
    C198   O661      0.69604      .   S
    C196   O661      0.69604      .   S
    C284   O662      0.63566      .   S
    C358   O662      0.63566      .   S
    C284   O663      0.74735      .   S
    C286   O663      0.74735      .   S
    C285   O664      0.63566      .   S
    C359   O664      0.63566      .   S
    C285   O665      0.74736      .   S
    C287   O665      0.74736      .   S
    C141   O666      0.63596      .   S
    C323   O666      0.63596      .   S
    C141   O667      0.74668      .   S
    C143   O667      0.74668      .   S
    C140   O668      0.63581      .   S
    C322   O668      0.63581      .   S
    C140   O669      0.74695      .   S
    C142   O669      0.74695      .   S
    C239   O670      0.70109      .   S
    C245   O670      0.70109      .   S
    C239   O671      0.74704      .   S
    C237   O671      0.74704      .   S
    C238   O672      0.70104      .   S
    C244   O672      0.70104      .   S
    C238   O673      0.74705      .   S
    C236   O673      0.74705      .   S
    C245   O674      0.54433      .   S
    C81    O674      0.54433      .   S
    C244   O675      0.54405      .   S
    C80    O675      0.54405      .   S
    C191   O676      0.70118      .   S
    C197   O676      0.70118      .   S
    C191   O677      0.74730      .   S
    C189   O677      0.74730      .   S
    C190   O678      0.70117      .   S
    C196   O678      0.70117      .   S
    C190   O679      0.74682      .   S
    C188   O679      0.74682      .   S
    C197   O680      0.54419      .   S
    C57    O680      0.54419      .   S
    C196   O681      0.54417      .   S
    C56    O681      0.54417      .   S
    C33    O682      0.54418      .   S
    C149   O682      0.54418      .   S
    C32    O683      0.54413      .   S
    C148   O683      0.54413      .   S
    C105   O684      0.54436      .   S
    C293   O684      0.54436      .   S
    C104   O685      0.54390      .   S
    C292   O685      0.54390      .   S
    C149   O686      0.70087      .   S
    C143   O686      0.70087      .   S
    C149   O687      0.69593      .   S
    C151   O687      0.69593      .   S
    C148   O688      0.70105      .   S
    C142   O688      0.70105      .   S
    C148   O689      0.69587      .   S
    C150   O689      0.69587      .   S
    C143   O690      0.70076      .   S
    C145   O690      0.70076      .   S
    C292   O691      0.70107      .   S
    C286   O691      0.70107      .   S
    C292   O692      0.69561      .   S
    C294   O692      0.69561      .   S
    C293   O693      0.70114      .   S
    C287   O693      0.70114      .   S
    C293   O694      0.69571      .   S
    C295   O694      0.69571      .   S
    C142   O695      0.70011      .   S
    C144   O695      0.70011      .   S
    C286   O696      0.70009      .   S
    C288   O696      0.70009      .   S
    C287   O697      0.70013      .   S
    C289   O697      0.70013      .   S
    C335   O698      0.63606      .   S
    C189   O698      0.63606      .   S
    C335   O699      0.98981      .   S
    C9     O699      0.98981      .   S
    C334   O700      0.63576      .   S
    C188   O700      0.63576      .   S
    C334   O701      0.98979      .   S
    C8     O701      0.98979      .   S
    C347   O702      0.63563      .   S
    C237   O702      0.63563      .   S
    C347   O703      0.99150  1_655   S
    C8     O703      0.99150      .   S
    C346   O704      0.63563      .   S
    C236   O704      0.63563      .   S
    C346   O705      0.99184      .   S
    C9     O705      0.99184      .   S
    C237   O706      0.64100      .   S
    C345   O706      0.64100      .   S
    C236   O707      0.64104      .   S
    C344   O707      0.64104      .   S
    C188   O708      0.64119      .   S
    C332   O708      0.64119      .   S
    C189   O709      0.64056      .   S
    C333   O709      0.64056      .   S
    C35    O710      0.54443      .   S
    C151   O710      0.54443      .   S
    C34    O711      0.54443      .   S
    C150   O711      0.54443      .   S
    C107   O712      0.54441      .   S
    C295   O712      0.54441      .   S
    C106   O713      0.54448      .   S
    C294   O713      0.54448      .   S
    C151   O714      0.70198      .   S
    C153   O714      0.70198      .   S
    C150   O715      0.70266      .   S
    C152   O715      0.70266      .   S
    C294   O716      0.70303      .   S
    C296   O716      0.70303      .   S
    C295   O717      0.70278      .   S
    C297   O717      0.70278      .   S
    C145   O718      0.54411      .   S
    C29    O718      0.54411      .   S
    C145   O719      0.69584      .   S
    C147   O719      0.69584      .   S
    C144   O720      0.54411      .   S
    C28    O720      0.54411      .   S
    C144   O721      0.69581      .   S
    C146   O721      0.69581      .   S
    C288   O722      0.54415      .   S
    C100   O722      0.54415      .   S
    C288   O723      0.69616      .   S
    C290   O723      0.69616      .   S
    C289   O724      0.54416      .   S
    C101   O724      0.54416      .   S
    C289   O725      0.69614      .   S
    C291   O725      0.69614      .   S
    C345   O726      0.98070      .   S
    C7     O726      0.98070      .   S
    C344   O727      0.98081      .   S
    C6     O727      0.98081      .   S
    C333   O728      0.98286      .   S
    C11    O728      0.98286      .   S
    C332   O729      0.98280      .   S
    C10    O729      0.98280      .   S
    C9     O730      0.98249      .   S
    C341   O730      0.98249      .   S
    C9     O731      0.98068      .   S
    C329   O731      0.98068      .   S
    C8     O732      0.98240      .   S
    C340   O732      0.98240      .   S
    C8     O733      0.98066      .   S
    C328   O733      0.98066      .   S
    C73    O734      0.54421      .   S
    C229   O734      0.54421      .   S
    C72    O735      0.54414      .   S
    C228   O735      0.54414      .   S
    C49    O736      0.54416      .   S
    C181   O736      0.54416      .   S
    C48    O737      0.54417      .   S
    C180   O737      0.54417      .   S
    C341   O738      0.64049      .   S
    C221   O738      0.64049      .   S
    C340   O739      0.64051      .   S
    C220   O739      0.64051      .   S
    C329   O740      0.64076      .   S
    C173   O740      0.64076      .   S
    C328   O741      0.64074      .   S
    C172   O741      0.64074      .   S
    C75    O742      0.54443      .   S
    C231   O742      0.54443      .   S
    C74    O743      0.54443      .   S
    C230   O743      0.54443      .   S
    C153   O744      0.70089      .   S
    C147   O744      0.70089      .   S
    C153   O745      0.77301      .   S
    C305   O745      0.77301      .   S
    C152   O746      0.70068      .   S
    C146   O746      0.70068      .   S
    C152   O747      0.77236      .   S
    C304   O747      0.77236      .   S
    C51    O748      0.54244      .   S
    C183   O748      0.54244      .   S
    C50    O749      0.54447      .   S
    C182   O749      0.54447      .   S
    C147   O750      0.54262      .   S
    C31    O750      0.54262      .   S
    C146   O751      0.54254      .   S
    C30    O751      0.54254      .   S
    C296   O752      0.70078      .   S
    C290   O752      0.70078      .   S
    C296   O753      0.77279      .   S
    C308   O753      0.77279      .   S
    C297   O754      0.70078      .   S
    C291   O754      0.70078      .   S
    C297   O755      0.77279      .   S
    C309   O755      0.77279      .   S
    C290   O756      0.54258      .   S
    C102   O756      0.54258      .   S
    C291   O757      0.54265      .   S
    C103   O757      0.54265      .   S
    C229   O758      0.69592      .   S
    C231   O758      0.69592      .   S
    C229   O759      0.70090      .   S
    C222   O759      0.70090  1_455   S
    C228   O760      0.69594      .   S
    C230   O760      0.69594      .   S
    C228   O761      0.70099      .   S
    C223   O761      0.70099      .   S
    C181   O762      0.69753      .   S
    C183   O762      0.69753      .   S
    C181   O763      0.70121      .   S
    C175   O763      0.70121      .   S
    C180   O764      0.69588      .   S
    C182   O764      0.69588      .   S
    C180   O765      0.70120      .   S
    C174   O765      0.70120      .   S
    C231   O766      0.70266      .   S
    C233   O766      0.70266      .   S
    C230   O767      0.70263      .   S
    C232   O767      0.70263      .   S
    C183   O768      0.70319      .   S
    C185   O768      0.70319      .   S
    C182   O769      0.70282      .   S
    C184   O769      0.70282      .   S
    C173   O770      0.74762      .   S
    C175   O770      0.74762      .   S
    C173   O771      0.63587      .   S
    C331   O771      0.63587      .   S
    C172   O772      0.74760      .   S
    C174   O772      0.74760      .   S
    C172   O773      0.63588      .   S
    C330   O773      0.63588      .   S
    C220   O774      0.74685      .   S
    C222   O774      0.74685      .   S
    C220   O775      0.63582      .   S
    C342   O775      0.63582      .   S
    C221   O776      0.74686      .   S
    C223   O776      0.74686      .   S
    C221   O777      0.63584      .   S
    C343   O777      0.63584      .   S
    C222   O778      0.70009      .   S
    C224   O778      0.70009      .   S
    C223   O779      0.69976      .   S
    C225   O779      0.69976      .   S
    C175   O780      0.70009      .   S
    C177   O780      0.70009      .   S
    C174   O781      0.70008      .   S
    C176   O781      0.70008      .   S
    C404   O782      0.68178      .   S
    C235   O782      0.68178  1_655   S
    C405   O783      0.68191      .   S
    C234   O783      0.68191      .   S
    C7     O784      0.99173      .   S
    C330   O784      0.99173  1_455   S
    C7     O785      0.98939      .   S
    C339   O785      0.98939      .   S
    C7     O786      0.98194      .   S
    C325   O786      0.98194      .   S
    C6     O787      0.99181      .   S
    C331   O787      0.99181      .   S
    C6     O788      0.98967      .   S
    C338   O788      0.98967      .   S
    C6     O789      0.98196      .   S
    C324   O789      0.98196      .   S
    C386   O790      0.68287      .   S
    C186   O790      0.68287      .   S
    C387   O791      0.68287      .   S
    C187   O791      0.68287      .   S
    C11    O792      0.98796      .   S
    C343   O792      0.98796      .   S
    C11    O793      0.99036      .   S
    C327   O793      0.99036      .   S
    C11    O794      0.98158      .   S
    C337   O794      0.98158      .   S
    C10    O795      0.98812      .   S
    C342   O795      0.98812      .   S
    C10    O796      0.99037      .   S
    C326   O796      0.99037      .   S
    C10    O797      0.98159      .   S
    C336   O797      0.98159      .   S
    C233   O798      0.77263      .   S
    C305   O798      0.77263  1_565   S
    C233   O799      0.70065  1_655   S
    C226   O799      0.70065      .   S
    C232   O800      0.77261      .   S
    C304   O800      0.77261  1_565   S
    C232   O801      0.70073      .   S
    C227   O801      0.70073      .   S
    C185   O802      0.77301      .   S
    C309   O802      0.77301      .   S
    C185   O803      0.70075      .   S
    C179   O803      0.70075      .   S
    C184   O804      0.77299      .   S
    C308   O804      0.77299      .   S
    C184   O805      0.70075      .   S
    C178   O805      0.70075      .   S
    C305   O806      0.78298      .   S
    C235   O806      0.78298      .   S
    C305   O807      0.78292  1_565   S
    C155   O807      0.78292      .   S
    C304   O808      0.78297      .   S
    C234   O808      0.78297      .   S
    C304   O809      0.78292  1_565   S
    C154   O809      0.78292      .   S
    C308   O810      0.78451      .   S
    C186   O810      0.78451      .   S
    C308   O811      0.78439      .   S
    C298   O811      0.78439      .   S
    C309   O812      0.78452      .   S
    C187   O812      0.78452      .   S
    C309   O813      0.78434      .   S
    C299   O813      0.78434      .   S
    C177   O814      0.69616      .   S
    C179   O814      0.69616      .   S
    C177   O815      0.54416      .   S
    C45    O815      0.54416      .   S
    C176   O816      0.69616      .   S
    C178   O816      0.69616      .   S
    C176   O817      0.54413      .   S
    C44    O817      0.54413      .   S
    C225   O818      0.69601      .   S
    C227   O818      0.69601      .   S
    C225   O819      0.54419      .   S
    C69    O819      0.54419      .   S
    C224   O820      0.69578      .   S
    C226   O820      0.69578      .   S
    C224   O821      0.54411      .   S
    C68    O821      0.54411      .   S
    C226   O822      0.54255      .   S
    C70    O822      0.54255      .   S
    C227   O823      0.54259      .   S
    C71    O823      0.54259      .   S
    C179   O824      0.54257      .   S
    C47    O824      0.54257      .   S
    C178   O825      0.54237      .   S
    C46    O825      0.54237      .   S
    C403   O826      0.67785      .   S
    C235   O826      0.67785      .   S
    C402   O827      0.67786      .   S
    C234   O827      0.67786      .   S
    C235   O828      0.67983      .   S
    C406   O828      0.67983  1_455   S
    C234   O829      0.67921      .   S
    C407   O829      0.67921      .   S
    C385   O830      0.67699      .   S
    C187   O830      0.67699      .   S
    C384   O831      0.67697      .   S
    C186   O831      0.67697      .   S
    C186   O832      0.67914      .   S
    C388   O832      0.67914      .   S
    C187   O833      0.67906      .   S
    C389   O833      0.67906      .   S
    C339   O834      0.63576      .   S
    C205   O834      0.63576      .   S
    C338   O835      0.63580      .   S
    C204   O835      0.63580      .   S
    C327   O836      0.63578      .   S
    C157   O836      0.63578      .   S
    C326   O837      0.63577      .   S
    C156   O837      0.63577      .   S
    C325   O838      0.64070      .   S
    C157   O838      0.64070      .   S
    C324   O839      0.64069      .   S
    C156   O839      0.64069      .   S
    C337   O840      0.64076      .   S
    C205   O840      0.64076      .   S
    C336   O841      0.64076      .   S
    C204   O841      0.64076      .   S
    C375   O842      0.68175      .   S
    C155   O842      0.68175      .   S
    C374   O843      0.68183      .   S
    C154   O843      0.68183      .   S
    C428   O844      0.68294      .   S
    C298   O844      0.68294      .   S
    C429   O845      0.68296      .   S
    C299   O845      0.68296      .   S
    C205   O846      0.74689      .   S
    C207   O846      0.74689      .   S
    C157   O847      0.74739      .   S
    C159   O847      0.74739      .   S
    C156   O848      0.74734      .   S
    C158   O848      0.74734      .   S
    C204   O849      0.74697      .   S
    C206   O849      0.74697      .   S
    C155   O850      0.67965      .   S
    C377   O850      0.67965      .   S
    C155   O851      0.67734      .   S
    C373   O851      0.67734      .   S
    C154   O852      0.67964      .   S
    C376   O852      0.67964      .   S
    C154   O853      0.67739      .   S
    C372   O853      0.67739      .   S
    C299   O854      0.67921      .   S
    C431   O854      0.67921      .   S
    C299   O855      0.67700      .   S
    C427   O855      0.67700      .   S
    C298   O856      0.67922      .   S
    C430   O856      0.67922      .   S
    C298   O857      0.67632      .   S
    C426   O857      0.67632      .   S
    C158   O858      0.70097      .   S
    C165   O858      0.70097      .   S
    C158   O859      0.70020      .   S
    C160   O859      0.70020      .   S
    C159   O860      0.70101  1_655   S
    C164   O860      0.70101      .   S
    C159   O861      0.70020      .   S
    C161   O861      0.70020      .   S
    C207   O862      0.70100      .   S
    C213   O862      0.70100      .   S
    C207   O863      0.70014      .   S
    C209   O863      0.70014      .   S
    C206   O864      0.70103      .   S
    C212   O864      0.70103      .   S
    C206   O865      0.70013      .   S
    C208   O865      0.70013      .   S
    C41    O866      0.54361      .   S
    C165   O866      0.54361      .   S
    C40    O867      0.54408      .   S
    C164   O867      0.54408      .   S
    C65    O868      0.54410      .   S
    C213   O868      0.54410      .   S
    C64    O869      0.54414      .   S
    C212   O869      0.54414      .   S
    C61    O870      0.54415      .   S
    C209   O870      0.54415      .   S
    C36    O871      0.54414      .   S
    C160   O871      0.54414      .   S
    C37    O872      0.54413      .   S
    C161   O872      0.54413      .   S
    C60    O873      0.54413      .   S
    C208   O873      0.54413      .   S
    C165   O874      0.69659      .   S
    C167   O874      0.69659      .   S
    C164   O875      0.69599      .   S
    C166   O875      0.69599      .   S
    C213   O876      0.69573      .   S
    C215   O876      0.69573      .   S
    C212   O877      0.69576      .   S
    C214   O877      0.69576      .   S
    C160   O878      0.69592      .   S
    C162   O878      0.69592      .   S
    C161   O879      0.69584      .   S
    C163   O879      0.69584      .   S
    C209   O880      0.69594      .   S
    C211   O880      0.69594      .   S
    C208   O881      0.69594      .   S
    C210   O881      0.69594      .   S
    C361   O882      0.67781      .   S
    C123   O882      0.67781      .   S
    C360   O883      0.67777      .   S
    C122   O883      0.67777      .   S
    C415   O884      0.67820      .   S
    C267   O884      0.67820      .   S
    C414   O885      0.67818      .   S
    C266   O885      0.67818      .   S
    C167   O886      0.54445      .   S
    C43    O886      0.54445      .   S
    C167   O887      0.70272      .   S
    C169   O887      0.70272      .   S
    C166   O888      0.54445      .   S
    C42    O888      0.54445      .   S
    C166   O889      0.70273      .   S
    C168   O889      0.70273      .   S
    C215   O890      0.54402      .   S
    C67    O890      0.54402      .   S
    C215   O891      0.70267      .   S
    C217   O891      0.70267      .   S
    C214   O892      0.54439      .   S
    C66    O892      0.54439      .   S
    C214   O893      0.70267      .   S
    C216   O893      0.70267      .   S
    C162   O894      0.54257      .   S
    C38    O894      0.54257      .   S
    C162   O895      0.70082      .   S
    C169   O895      0.70082      .   S
    C163   O896      0.54263      .   S
    C39    O896      0.54263      .   S
    C163   O897      0.70077      .   S
    C168   O897      0.70077  1_455   S
    C211   O898      0.54260      .   S
    C63    O898      0.54260      .   S
    C211   O899      0.70066      .   S
    C217   O899      0.70066      .   S
    C210   O900      0.54269      .   S
    C62    O900      0.54269      .   S
    C210   O901      0.70063      .   S
    C216   O901      0.70063      .   S
    C362   O902      0.68193      .   S
    C123   O902      0.68193      .   S
    C417   O903      0.68239      .   S
    C267   O903      0.68239      .   S
    C363   O904      0.68183      .   S
    C122   O904      0.68183  1_455   S
    C416   O905      0.68233      .   S
    C266   O905      0.68233      .   S
    C217   O906      0.77238      .   S
    C301   O906      0.77238      .   S
    C123   O907      0.67983      .   S
    C364   O907      0.67983      .   S
    C123   O908      0.78303      .   S
    C301   O908      0.78303      .   S
    C122   O909      0.67974      .   S
    C365   O909      0.67974  1_655   S
    C267   O910      0.67931      .   S
    C419   O910      0.67931      .   S
    C266   O911      0.67968      .   S
    C418   O911      0.67968      .   S
