# CIF file generated by openbabel 2.4.90, see http://openbabel.sf.net
data_I
_chemical_name_common ''
_cell_length_a 5.996
_cell_length_b 15.947
_cell_length_c 16.662
_cell_angle_alpha 90
_cell_angle_beta 90.015
_cell_angle_gamma 90.015
_space_group_name_H-M_alt 'P 1'
_space_group_name_Hall 'P 1'
loop_
    _symmetry_equiv_pos_as_xyz
    x,y,z
loop_
    _atom_site_label
    _atom_site_type_symbol
    _atom_site_fract_x
    _atom_site_fract_y
    _atom_site_fract_z
    _atom_site_occupancy
    Cd0     Cd   0.12814   0.45764   0.60103   1.000
    Cd1     Cd   0.62850   0.54289   0.89899   1.000
    Cd2     Cd   0.87153   0.04280   0.10097   1.000
    Cd3     Cd   0.37186   0.95754   0.39894   1.000
    Cl4     Cl   0.07808   0.96200   0.50480   1.000
    Cl5     Cl   0.42199   0.46206   0.49518   1.000
    Cl6     Cl   0.92239   0.53833   0.00483   1.000
    Cl7     Cl   0.57752   0.03826   0.99516   1.000
loop_
    _geom_bond_atom_site_label_1
    _geom_bond_atom_site_label_2
    _geom_bond_distance
    _geom_bond_site_symmetry_2
    _ccdc_geom_bond_type
    Cl6    Cd1       2.49374  1_554   S
    Cd2    Cl7       2.49382  1_554   S
    Cd3    Cl4       2.49418      .   S
    Cl5    Cd0       2.49429      .   S
