# CIF file generated by openbabel 2.4.90, see http://openbabel.sf.net
data_I
_chemical_name_common ''
_cell_length_a 5.996
_cell_length_b 15.947
_cell_length_c 16.662
_cell_angle_alpha 90
_cell_angle_beta 90.015
_cell_angle_gamma 90.015
_space_group_name_H-M_alt 'P 1'
_space_group_name_Hall 'P 1'
loop_
    _symmetry_equiv_pos_as_xyz
    x,y,z
loop_
    _atom_site_label
    _atom_site_type_symbol
    _atom_site_fract_x
    _atom_site_fract_y
    _atom_site_fract_z
    _atom_site_occupancy
    N0      N    0.34259   0.33394   0.94180   1.000
    N1      N    0.15724   0.83387   0.05841   1.000
    N2      N    0.65776   0.16642   0.44158   1.000
    N3      N    0.84234   0.66645   0.55837   1.000
    Zr4     Zr   0.22497   0.95977   0.45187   1.000
    O5      O    0.22584   0.92019   0.32595   1.000
    O6      O    0.40344   0.02432   0.43961   1.000
    O7      O    0.43964   0.87052   0.46957   1.000
    Zr8     Zr   0.72453   0.04053   0.04807   1.000
    O9      O    0.90295   0.97598   0.06033   1.000
    O10     O    0.72576   0.08014   0.17400   1.000
    O11     O    0.93944   0.12981   0.03041   1.000
    Zr12    Zr   0.27506   0.45985   0.54811   1.000
    O13     O    0.06040   0.37057   0.53040   1.000
    O14     O    0.27412   0.42028   0.67409   1.000
    O15     O    0.09662   0.52439   0.56036   1.000
    Zr16    Zr   0.77544   0.54061   0.95191   1.000
    O17     O    0.56050   0.62985   0.96962   1.000
    O18     O    0.59697   0.47606   0.93970   1.000
    O19     O    0.77426   0.58021   0.82596   1.000
loop_
    _geom_bond_atom_site_label_1
    _geom_bond_atom_site_label_2
    _geom_bond_distance
    _geom_bond_site_symmetry_2
    _ccdc_geom_bond_type
    Zr4    O5        2.19101      .   S
    N1     O5        4.68329      .   S
    Zr4    O6        1.49864  1_565   S
    N2     O6        2.73134      .   S
    Zr4    O7        1.94173      .   S
    N3     O7        4.31414      .   S
    Zr8    O9        1.49882  1_545   S
    N1     O9        2.73192  1_455   S
    Zr8    O10       2.19136      .   S
    N2     O10       4.68381      .   S
    Zr8    O11       1.94252      .   S
    N0     O11       4.31481  1_456   S
    Zr12   O13       1.94154      .   S
    N2     O13       4.31408  1_655   S
    Zr12   O14       2.19191      .   S
    N0     O14       4.68624      .   S
    Zr12   O15       1.49875      .   S
    N3     O15       2.73126  1_655   S
    Zr16   O17       1.94275      .   S
    N1     O17       4.31590  1_554   S
    Zr16   O18       1.49847      .   S
    N0     O18       2.73173      .   S
    Zr16   O19       2.19150      .   S
    N3     O19       4.68383      .   S
