# CIF file generated by openbabel 2.4.90, see http://openbabel.sf.net
data_I
_chemical_name_common ''
_cell_length_a 15.428
_cell_length_b 20.134
_cell_length_c 17.805
_cell_angle_alpha 89.98
_cell_angle_beta 89.987
_cell_angle_gamma 89.995
_space_group_name_H-M_alt 'P 1'
_space_group_name_Hall 'P 1'
loop_
    _symmetry_equiv_pos_as_xyz
    x,y,z
loop_
    _atom_site_label
    _atom_site_type_symbol
    _atom_site_fract_x
    _atom_site_fract_y
    _atom_site_fract_z
    _atom_site_occupancy
    C0      C    0.20393   0.12496   0.42460   1.000
    C1      C    0.20393   0.62496   0.42461   1.000
    C2      C    0.70391   0.12495   0.42460   1.000
    C3      C    0.70393   0.62496   0.42460   1.000
    C4      C    0.23321   0.12500   0.76548   1.000
    C5      C    0.23321   0.62501   0.76548   1.000
    C6      C    0.73320   0.12500   0.76548   1.000
    C7      C    0.73320   0.62500   0.76548   1.000
    C8      C    0.04476   0.37499   0.92459   1.000
    C9      C    0.04477   0.87500   0.92459   1.000
    C10     C    0.54474   0.37497   0.92458   1.000
    C11     C    0.54473   0.87497   0.92450   1.000
    C12     C    0.01746   0.37500   0.26535   1.000
    C13     C    0.01745   0.87501   0.26535   1.000
    C14     C    0.51745   0.37500   0.26535   1.000
    C15     C    0.51745   0.87500   0.26535   1.000
    C16     C    0.29608   0.37506   0.57538   1.000
    C17     C    0.29608   0.87507   0.57539   1.000
    C18     C    0.79606   0.37506   0.57538   1.000
    C19     C    0.79605   0.87507   0.57538   1.000
    C20     C    0.26680   0.37502   0.23450   1.000
    C21     C    0.26679   0.87503   0.23451   1.000
    C22     C    0.76678   0.37501   0.23450   1.000
    C23     C    0.76678   0.87502   0.23450   1.000
    C24     C    0.45524   0.12505   0.07541   1.000
    C25     C    0.45523   0.62506   0.07541   1.000
    C26     C    0.95522   0.12502   0.07539   1.000
    C27     C    0.95521   0.62502   0.07539   1.000
    C28     C    0.48260   0.12501   0.73464   1.000
    C29     C    0.48261   0.62502   0.73460   1.000
    C30     C    0.98257   0.12502   0.73464   1.000
    C31     C    0.98258   0.62502   0.73464   1.000
    C32     C    0.28804   0.22722   0.31626   1.000
    C33     C    0.28805   0.72724   0.31629   1.000
    C34     C    0.78801   0.22719   0.31621   1.000
    C35     C    0.78804   0.72721   0.31620   1.000
    C36     C    0.02516   0.23431   0.37674   1.000
    C37     C    0.02515   0.73431   0.37673   1.000
    C38     C    0.52515   0.23433   0.37676   1.000
    C39     C    0.52517   0.73431   0.37675   1.000
    C40     C    0.46196   0.27273   0.81596   1.000
    C41     C    0.46194   0.77272   0.81590   1.000
    C42     C    0.96189   0.27270   0.81600   1.000
    C43     C    0.96189   0.77269   0.81603   1.000
    C44     C    0.22451   0.26574   0.87724   1.000
    C45     C    0.22452   0.76575   0.87723   1.000
    C46     C    0.72455   0.26571   0.87720   1.000
    C47     C    0.72454   0.76573   0.87720   1.000
    C48     C    0.21214   0.47715   0.68388   1.000
    C49     C    0.21210   0.97718   0.68380   1.000
    C50     C    0.71210   0.47714   0.68390   1.000
    C51     C    0.71208   0.97716   0.68387   1.000
    C52     C    0.47499   0.48437   0.62332   1.000
    C53     C    0.47499   0.98434   0.62338   1.000
    C54     C    0.97495   0.48435   0.62333   1.000
    C55     C    0.97494   0.98437   0.62332   1.000
    C56     C    0.03812   0.02266   0.18394   1.000
    C57     C    0.03812   0.52266   0.18394   1.000
    C58     C    0.53814   0.02264   0.18390   1.000
    C59     C    0.53812   0.52267   0.18394   1.000
    C60     C    0.27555   0.01574   0.12264   1.000
    C61     C    0.27554   0.51575   0.12262   1.000
    C62     C    0.77548   0.01579   0.12274   1.000
    C63     C    0.77549   0.51578   0.12272   1.000
    C64     C    0.21201   0.27282   0.68376   1.000
    C65     C    0.21202   0.77283   0.68379   1.000
    C66     C    0.71197   0.27280   0.68374   1.000
    C67     C    0.71199   0.77281   0.68376   1.000
    C68     C    0.47488   0.26569   0.62322   1.000
    C69     C    0.47488   0.76571   0.62320   1.000
    C70     C    0.97485   0.26571   0.62324   1.000
    C71     C    0.97485   0.76569   0.62320   1.000
    C72     C    0.03812   0.22731   0.18399   1.000
    C73     C    0.03811   0.72731   0.18400   1.000
    C74     C    0.53804   0.22727   0.18400   1.000
    C75     C    0.53804   0.72728   0.18403   1.000
    C76     C    0.27545   0.23432   0.12278   1.000
    C77     C    0.27545   0.73432   0.12278   1.000
    C78     C    0.77551   0.23430   0.12272   1.000
    C79     C    0.77550   0.73431   0.12271   1.000
    C80     C    0.28793   0.02286   0.31613   1.000
    C81     C    0.28794   0.52286   0.31613   1.000
    C82     C    0.78791   0.02286   0.31611   1.000
    C83     C    0.78794   0.52285   0.31610   1.000
    C84     C    0.02506   0.01566   0.37663   1.000
    C85     C    0.02507   0.51566   0.37664   1.000
    C86     C    0.52505   0.01564   0.37665   1.000
    C87     C    0.52506   0.51569   0.37661   1.000
    C88     C    0.46186   0.47739   0.81609   1.000
    C89     C    0.46187   0.97738   0.81607   1.000
    C90     C    0.96188   0.47737   0.81607   1.000
    C91     C    0.96189   0.97738   0.81607   1.000
    C92     C    0.22453   0.48420   0.87722   1.000
    C93     C    0.22455   0.98422   0.87721   1.000
    C94     C    0.72446   0.48425   0.87735   1.000
    C95     C    0.72446   0.98426   0.87735   1.000
    C96     C    0.26744   0.12494   0.58314   1.000
    C97     C    0.26747   0.62498   0.58315   1.000
    C98     C    0.76743   0.12495   0.58314   1.000
    C99     C    0.76746   0.62491   0.58310   1.000
    C100    C    0.00077   0.12507   0.53644   1.000
    C101    C    0.00079   0.62505   0.53645   1.000
    C102    C    0.50076   0.12506   0.53644   1.000
    C103    C    0.50078   0.62510   0.53643   1.000
    C104    C    0.48192   0.37495   0.08351   1.000
    C105    C    0.48191   0.87491   0.08351   1.000
    C106    C    0.98192   0.37499   0.08351   1.000
    C107    C    0.98192   0.87499   0.08351   1.000
    C108    C    0.24844   0.37498   0.03591   1.000
    C109    C    0.24845   0.87502   0.03592   1.000
    C110    C    0.74842   0.37506   0.03591   1.000
    C111    C    0.74841   0.87511   0.03590   1.000
    C112    C    0.23261   0.37507   0.41684   1.000
    C113    C    0.23261   0.87512   0.41685   1.000
    C114    C    0.73258   0.37506   0.41683   1.000
    C115    C    0.73256   0.87506   0.41682   1.000
    C116    C    0.49928   0.37496   0.46356   1.000
    C117    C    0.49928   0.87493   0.46357   1.000
    C118    C    0.99924   0.37496   0.46350   1.000
    C119    C    0.99923   0.87496   0.46356   1.000
    C120    C    0.01808   0.12505   0.91648   1.000
    C121    C    0.01807   0.62501   0.91648   1.000
    C122    C    0.51807   0.12508   0.91649   1.000
    C123    C    0.51806   0.62510   0.91649   1.000
    C124    C    0.25156   0.12493   0.96406   1.000
    C125    C    0.25155   0.62494   0.96407   1.000
    C126    C    0.75155   0.12502   0.96406   1.000
    C127    C    0.75154   0.62502   0.96406   1.000
    C128    C    0.22075   0.24224   0.32093   1.000
    C129    C    0.22076   0.74226   0.32096   1.000
    C130    C    0.72073   0.24222   0.32090   1.000
    C131    C    0.72075   0.74223   0.32089   1.000
    C132    C    0.08790   0.24588   0.35252   1.000
    C133    C    0.08790   0.74588   0.35252   1.000
    C134    C    0.58789   0.24589   0.35253   1.000
    C135    C    0.58791   0.74588   0.35251   1.000
    C136    C    0.02921   0.25773   0.82084   1.000
    C137    C    0.02920   0.75772   0.82088   1.000
    C138    C    0.52925   0.25775   0.82080   1.000
    C139    C    0.52923   0.75775   0.82081   1.000
    C140    C    0.16190   0.25415   0.85281   1.000
    C141    C    0.16191   0.75417   0.85280   1.000
    C142    C    0.66193   0.25414   0.85278   1.000
    C143    C    0.66192   0.75415   0.85278   1.000
    C144    C    0.27941   0.49220   0.67918   1.000
    C145    C    0.27938   0.99222   0.67916   1.000
    C146    C    0.77937   0.49219   0.67920   1.000
    C147    C    0.77936   0.99221   0.67910   1.000
    C148    C    0.41224   0.49591   0.64754   1.000
    C149    C    0.41223   0.99589   0.64758   1.000
    C150    C    0.91220   0.49589   0.64750   1.000
    C151    C    0.91219   0.99591   0.64755   1.000
    C152    C    0.47085   0.00767   0.17905   1.000
    C153    C    0.47083   0.50771   0.17908   1.000
    C154    C    0.97080   0.00771   0.17910   1.000
    C155    C    0.97080   0.50770   0.17909   1.000
    C156    C    0.33815   0.00415   0.14710   1.000
    C157    C    0.33815   0.50415   0.14708   1.000
    C158    C    0.83810   0.00417   0.14716   1.000
    C159    C    0.83810   0.50418   0.14716   1.000
    C160    C    0.27930   0.25779   0.67908   1.000
    C161    C    0.27931   0.75780   0.67909   1.000
    C162    C    0.77926   0.25778   0.67906   1.000
    C163    C    0.77928   0.75779   0.67907   1.000
    C164    C    0.41213   0.25413   0.64740   1.000
    C165    C    0.41214   0.75415   0.64746   1.000
    C166    C    0.91211   0.25414   0.64746   1.000
    C167    C    0.91211   0.75413   0.64744   1.000
    C168    C    0.47076   0.24227   0.17918   1.000
    C169    C    0.47076   0.74227   0.17918   1.000
    C170    C    0.97081   0.24229   0.17913   1.000
    C171    C    0.97080   0.74229   0.17914   1.000
    C172    C    0.33807   0.24588   0.14722   1.000
    C173    C    0.33807   0.74589   0.14722   1.000
    C174    C    0.83812   0.24587   0.14717   1.000
    C175    C    0.83811   0.74588   0.14716   1.000
    C176    C    0.22065   0.00782   0.32080   1.000
    C177    C    0.22067   0.50781   0.32082   1.000
    C178    C    0.72064   0.00781   0.32081   1.000
    C179    C    0.72066   0.50781   0.32081   1.000
    C180    C    0.08782   0.00412   0.35242   1.000
    C181    C    0.08782   0.50413   0.35242   1.000
    C182    C    0.58780   0.00411   0.35243   1.000
    C183    C    0.58782   0.50414   0.35240   1.000
    C184    C    0.02920   0.49232   0.82089   1.000
    C185    C    0.02921   0.99233   0.82090   1.000
    C186    C    0.52915   0.49234   0.82094   1.000
    C187    C    0.52917   0.99233   0.82091   1.000
    C188    C    0.16191   0.49582   0.85281   1.000
    C189    C    0.16192   0.99584   0.85280   1.000
    C190    C    0.66185   0.49586   0.85290   1.000
    C191    C    0.66185   0.99587   0.85291   1.000
    C192    C    0.19757   0.12497   0.58981   1.000
    C193    C    0.19759   0.62500   0.58980   1.000
    C194    C    0.69756   0.12499   0.58981   1.000
    C195    C    0.69758   0.62495   0.58980   1.000
    C196    C    0.06265   0.12505   0.56548   1.000
    C197    C    0.06267   0.62504   0.56549   1.000
    C198    C    0.56264   0.12503   0.56548   1.000
    C199    C    0.56266   0.62507   0.56548   1.000
    C200    C    0.05184   0.37499   0.08992   1.000
    C201    C    0.05185   0.87499   0.08990   1.000
    C202    C    0.55182   0.37498   0.08991   1.000
    C203    C    0.55182   0.87496   0.08991   1.000
    C204    C    0.18667   0.37499   0.06515   1.000
    C205    C    0.18668   0.87503   0.06516   1.000
    C206    C    0.68665   0.37504   0.06515   1.000
    C207    C    0.68664   0.87506   0.06510   1.000
    C208    C    0.30248   0.37503   0.41017   1.000
    C209    C    0.30248   0.87507   0.41018   1.000
    C210    C    0.80245   0.37503   0.41017   1.000
    C211    C    0.80244   0.87503   0.41016   1.000
    C212    C    0.43740   0.37498   0.43452   1.000
    C213    C    0.43740   0.87496   0.43452   1.000
    C214    C    0.93737   0.37497   0.43450   1.000
    C215    C    0.93735   0.87498   0.43451   1.000
    C216    C    0.44817   0.12505   0.91008   1.000
    C217    C    0.44816   0.62506   0.91008   1.000
    C218    C    0.94816   0.12503   0.91007   1.000
    C219    C    0.94815   0.62502   0.91007   1.000
    C220    C    0.31334   0.12496   0.93482   1.000
    C221    C    0.31333   0.62498   0.93483   1.000
    C222    C    0.81333   0.12502   0.93482   1.000
    C223    C    0.81332   0.62501   0.93482   1.000
    C224    C    0.16056   0.20852   0.36149   1.000
    C225    C    0.16056   0.70853   0.36150   1.000
    C226    C    0.66054   0.20851   0.36147   1.000
    C227    C    0.66057   0.70851   0.36146   1.000
    C228    C    0.18833   0.29656   0.28879   1.000
    C229    C    0.18833   0.79657   0.28880   1.000
    C230    C    0.68832   0.29655   0.28877   1.000
    C231    C    0.68833   0.79655   0.28876   1.000
    C232    C    0.10221   0.29903   0.30929   1.000
    C233    C    0.10221   0.79903   0.30900   1.000
    C234    C    0.60220   0.29903   0.30929   1.000
    C235    C    0.60221   0.79902   0.30928   1.000
    C236    C    0.08914   0.29146   0.86163   1.000
    C237    C    0.08914   0.79146   0.86164   1.000
    C238    C    0.58919   0.29147   0.86157   1.000
    C239    C    0.58917   0.79147   0.86158   1.000
    C240    C    0.06182   0.20349   0.78872   1.000
    C241    C    0.06182   0.70349   0.78873   1.000
    C242    C    0.56183   0.20348   0.78870   1.000
    C243    C    0.56182   0.70348   0.78872   1.000
    C244    C    0.14788   0.20104   0.80946   1.000
    C245    C    0.14788   0.70105   0.80947   1.000
    C246    C    0.64788   0.20102   0.80946   1.000
    C247    C    0.64788   0.70103   0.80945   1.000
    C248    C    0.33962   0.45850   0.63864   1.000
    C249    C    0.33960   0.95850   0.63865   1.000
    C250    C    0.83958   0.45848   0.63866   1.000
    C251    C    0.83957   0.95851   0.63860   1.000
    C252    C    0.31176   0.04654   0.71125   1.000
    C253    C    0.31177   0.54654   0.71126   1.000
    C254    C    0.81174   0.04653   0.71126   1.000
    C255    C    0.81175   0.54653   0.71128   1.000
    C256    C    0.39789   0.04903   0.69075   1.000
    C257    C    0.39789   0.54905   0.69073   1.000
    C258    C    0.89785   0.04904   0.69073   1.000
    C259    C    0.89785   0.54904   0.69074   1.000
    C260    C    0.41093   0.04142   0.13825   1.000
    C261    C    0.41091   0.54144   0.13826   1.000
    C262    C    0.91086   0.04147   0.13833   1.000
    C263    C    0.91086   0.54147   0.13833   1.000
    C264    C    0.43820   0.45346   0.21123   1.000
    C265    C    0.43820   0.95347   0.21123   1.000
    C266    C    0.93819   0.45345   0.21123   1.000
    C267    C    0.93818   0.95346   0.21123   1.000
    C268    C    0.35215   0.45104   0.19047   1.000
    C269    C    0.35215   0.95104   0.19047   1.000
    C270    C    0.85213   0.45103   0.19049   1.000
    C271    C    0.85212   0.95105   0.19050   1.000
    C272    C    0.33948   0.29150   0.63850   1.000
    C273    C    0.33949   0.79152   0.63852   1.000
    C274    C    0.83945   0.29150   0.63850   1.000
    C275    C    0.83946   0.79150   0.63849   1.000
    C276    C    0.31171   0.20346   0.71120   1.000
    C277    C    0.31173   0.70348   0.71120   1.000
    C278    C    0.81169   0.20346   0.71120   1.000
    C279    C    0.81170   0.70347   0.71121   1.000
    C280    C    0.39783   0.20098   0.69069   1.000
    C281    C    0.39784   0.70100   0.69069   1.000
    C282    C    0.89781   0.20099   0.69069   1.000
    C283    C    0.89781   0.70099   0.69068   1.000
    C284    C    0.41081   0.20854   0.13842   1.000
    C285    C    0.41081   0.70855   0.13842   1.000
    C286    C    0.91087   0.20857   0.13830   1.000
    C287    C    0.91087   0.70857   0.13835   1.000
    C288    C    0.43818   0.29653   0.21128   1.000
    C289    C    0.43818   0.79654   0.21129   1.000
    C290    C    0.93820   0.29653   0.21127   1.000
    C291    C    0.93819   0.79653   0.21126   1.000
    C292    C    0.35213   0.29901   0.19053   1.000
    C293    C    0.35213   0.79901   0.19054   1.000
    C294    C    0.85214   0.29898   0.19051   1.000
    C295    C    0.85214   0.79899   0.19050   1.000
    C296    C    0.16043   0.04152   0.36134   1.000
    C297    C    0.16045   0.54152   0.36134   1.000
    C298    C    0.66042   0.04151   0.36134   1.000
    C299    C    0.66045   0.54152   0.36133   1.000
    C300    C    0.18829   0.45348   0.28872   1.000
    C301    C    0.18828   0.95348   0.28873   1.000
    C302    C    0.68829   0.45347   0.28872   1.000
    C303    C    0.68826   0.95349   0.28872   1.000
    C304    C    0.10218   0.45097   0.30925   1.000
    C305    C    0.10216   0.95098   0.30924   1.000
    C306    C    0.60217   0.45098   0.30923   1.000
    C307    C    0.60215   0.95097   0.30925   1.000
    C308    C    0.08914   0.45854   0.86165   1.000
    C309    C    0.08915   0.95855   0.86160   1.000
    C310    C    0.58907   0.45859   0.86174   1.000
    C311    C    0.58907   0.95859   0.86174   1.000
    C312    C    0.06183   0.04657   0.78876   1.000
    C313    C    0.06182   0.54657   0.78876   1.000
    C314    C    0.56181   0.04656   0.78877   1.000
    C315    C    0.56180   0.54657   0.78877   1.000
    C316    C    0.14790   0.04897   0.80948   1.000
    C317    C    0.14789   0.54897   0.80948   1.000
    C318    C    0.64787   0.04897   0.80951   1.000
    C319    C    0.64785   0.54898   0.80952   1.000
    C320    C    0.14143   0.12501   0.53103   1.000
    C321    C    0.14145   0.62502   0.53104   1.000
    C322    C    0.64142   0.12501   0.53103   1.000
    C323    C    0.64145   0.62501   0.53103   1.000
    C324    C    0.15754   0.12500   0.65595   1.000
    C325    C    0.15756   0.62502   0.65596   1.000
    C326    C    0.65753   0.12499   0.65595   1.000
    C327    C    0.65755   0.62499   0.65595   1.000
    C328    C    0.07000   0.12503   0.64032   1.000
    C329    C    0.07002   0.62504   0.64033   1.000
    C330    C    0.56999   0.12503   0.64032   1.000
    C331    C    0.57001   0.62504   0.64032   1.000
    C332    C    0.10775   0.37498   0.03096   1.000
    C333    C    0.10775   0.87501   0.03090   1.000
    C334    C    0.60772   0.37501   0.03096   1.000
    C335    C    0.60771   0.87501   0.03096   1.000
    C336    C    0.09214   0.37500   0.15591   1.000
    C337    C    0.09214   0.87502   0.15590   1.000
    C338    C    0.59212   0.37500   0.15591   1.000
    C339    C    0.59212   0.87499   0.15591   1.000
    C340    C    0.17962   0.37501   0.14003   1.000
    C341    C    0.17963   0.87502   0.14004   1.000
    C342    C    0.67960   0.37502   0.14003   1.000
    C343    C    0.67960   0.87505   0.14002   1.000
    C344    C    0.35861   0.37501   0.46896   1.000
    C345    C    0.35861   0.87501   0.46897   1.000
    C346    C    0.85858   0.37500   0.46896   1.000
    C347    C    0.85856   0.87501   0.46895   1.000
    C348    C    0.34252   0.37503   0.34404   1.000
    C349    C    0.34252   0.87504   0.34405   1.000
    C350    C    0.84249   0.37500   0.34404   1.000
    C351    C    0.84248   0.87501   0.34403   1.000
    C352    C    0.43006   0.37499   0.35960   1.000
    C353    C    0.43006   0.87499   0.35968   1.000
    C354    C    0.93003   0.37498   0.35967   1.000
    C355    C    0.93002   0.87498   0.35960   1.000
    C356    C    0.39226   0.12500   0.96902   1.000
    C357    C    0.39225   0.62502   0.96903   1.000
    C358    C    0.89225   0.12504   0.96902   1.000
    C359    C    0.89224   0.62502   0.96902   1.000
    C360    C    0.40788   0.12503   0.84407   1.000
    C361    C    0.40787   0.62504   0.84408   1.000
    C362    C    0.90786   0.12501   0.84407   1.000
    C363    C    0.90786   0.62501   0.84407   1.000
    C364    C    0.32040   0.12498   0.85995   1.000
    C365    C    0.32038   0.62499   0.85990   1.000
    C366    C    0.82038   0.12500   0.85995   1.000
    C367    C    0.82037   0.62501   0.85995   1.000
    O368    O    0.14722   0.87502   0.04803   1.000
    O369    O    0.07980   0.87500   0.06040   1.000
    O370    O    0.07626   0.87501   0.97774   1.000
    O371    O    0.14721   0.37498   0.04805   1.000
    O372    O    0.07979   0.37499   0.06044   1.000
    O373    O    0.07625   0.37499   0.97777   1.000
    O374    O    0.64718   0.37503   0.04805   1.000
    O375    O    0.57977   0.37499   0.06043   1.000
    O376    O    0.57623   0.37499   0.97777   1.000
    O377    O    0.64718   0.87504   0.04803   1.000
    O378    O    0.57976   0.87499   0.06043   1.000
    O379    O    0.57622   0.87499   0.97773   1.000
    O380    O    0.71753   0.87509   0.05050   1.000
    O381    O    0.21756   0.37498   0.05053   1.000
    O382    O    0.71753   0.37505   0.05053   1.000
    O383    O    0.21756   0.87502   0.05054   1.000
    O384    O    0.68312   0.87506   0.10256   1.000
    O385    O    0.68312   0.37503   0.10259   1.000
    O386    O    0.18315   0.37500   0.10259   1.000
    O387    O    0.18315   0.87502   0.10260   1.000
    O388    O    0.93304   0.58325   0.10686   1.000
    O389    O    0.93304   0.66680   0.10687   1.000
    O390    O    0.92373   0.62502   0.02220   1.000
    O391    O    0.93305   0.16679   0.10684   1.000
    O392    O    0.93304   0.08324   0.10686   1.000
    O393    O    0.92373   0.12503   0.02220   1.000
    O394    O    0.43307   0.58325   0.10683   1.000
    O395    O    0.43302   0.66681   0.10691   1.000
    O396    O    0.42374   0.62504   0.02222   1.000
    O397    O    0.43308   0.08324   0.10683   1.000
    O398    O    0.43302   0.16679   0.10691   1.000
    O399    O    0.42375   0.12502   0.02221   1.000
    O400    O    0.01689   0.87499   0.08670   1.000
    O401    O    0.01688   0.37499   0.08671   1.000
    O402    O    0.51686   0.87493   0.08671   1.000
    O403    O    0.51687   0.37496   0.08671   1.000
    O404    O    0.07200   0.87500   0.12290   1.000
    O405    O    0.57197   0.37499   0.12291   1.000
    O406    O    0.57197   0.87497   0.12291   1.000
    O407    O    0.07199   0.37500   0.12291   1.000
    O408    O    0.30685   0.50995   0.13485   1.000
    O409    O    0.30685   0.00995   0.13487   1.000
    O410    O    0.80681   0.74010   0.13493   1.000
    O411    O    0.80681   0.24009   0.13494   1.000
    O412    O    0.80679   0.50998   0.13494   1.000
    O413    O    0.80679   0.00998   0.13495   1.000
    O414    O    0.30676   0.74010   0.13500   1.000
    O415    O    0.30676   0.24010   0.13500   1.000
    O416    O    0.37454   0.02279   0.14267   1.000
    O417    O    0.44089   0.02455   0.15865   1.000
    O418    O    0.37453   0.52279   0.14267   1.000
    O419    O    0.44087   0.52457   0.15867   1.000
    O420    O    0.87450   0.22722   0.14273   1.000
    O421    O    0.94084   0.22543   0.15871   1.000
    O422    O    0.87448   0.02282   0.14274   1.000
    O423    O    0.94083   0.02459   0.15871   1.000
    O424    O    0.87448   0.52282   0.14274   1.000
    O425    O    0.94083   0.52459   0.15871   1.000
    O426    O    0.87449   0.72722   0.14275   1.000
    O427    O    0.94083   0.72543   0.15874   1.000
    O428    O    0.37444   0.72722   0.14282   1.000
    O429    O    0.44079   0.72541   0.15880   1.000
    O430    O    0.37444   0.22721   0.14282   1.000
    O431    O    0.44078   0.22541   0.15880   1.000
    O432    O    0.63586   0.87502   0.14796   1.000
    O433    O    0.72319   0.87503   0.18726   1.000
    O434    O    0.13588   0.37501   0.14797   1.000
    O435    O    0.22321   0.37501   0.18726   1.000
    O436    O    0.63586   0.37501   0.14797   1.000
    O437    O    0.72319   0.37502   0.18726   1.000
    O438    O    0.13588   0.87502   0.14797   1.000
    O439    O    0.22321   0.87502   0.18727   1.000
    O440    O    0.34515   0.47759   0.16877   1.000
    O441    O    0.34515   0.97759   0.16878   1.000
    O442    O    0.84512   0.47760   0.16882   1.000
    O443    O    0.84511   0.97761   0.16883   1.000
    O444    O    0.84512   0.77244   0.16883   1.000
    O445    O    0.84513   0.27243   0.16884   1.000
    O446    O    0.34510   0.27244   0.16887   1.000
    O447    O    0.34510   0.77245   0.16888   1.000
    O448    O    0.05480   0.87501   0.21062   1.000
    O449    O    0.55478   0.37500   0.21063   1.000
    O450    O    0.55478   0.87499   0.21063   1.000
    O451    O    0.05480   0.37500   0.21063   1.000
    O452    O    0.50450   0.01516   0.18147   1.000
    O453    O    0.45453   0.98057   0.19514   1.000
    O454    O    0.50447   0.51519   0.18151   1.000
    O455    O    0.45452   0.48059   0.19515   1.000
    O456    O    0.00446   0.51518   0.18151   1.000
    O457    O    0.95450   0.48058   0.19516   1.000
    O458    O    0.00446   0.01518   0.18152   1.000
    O459    O    0.95449   0.98059   0.19516   1.000
    O460    O    0.00446   0.23480   0.18156   1.000
    O461    O    0.95450   0.26941   0.19520   1.000
    O462    O    0.00445   0.73480   0.18157   1.000
    O463    O    0.95449   0.76941   0.19520   1.000
    O464    O    0.50440   0.23477   0.18159   1.000
    O465    O    0.45447   0.26940   0.19523   1.000
    O466    O    0.50440   0.73478   0.18160   1.000
    O467    O    0.45447   0.76941   0.19523   1.000
    O468    O    0.39518   0.95225   0.20085   1.000
    O469    O    0.30947   0.91303   0.21249   1.000
    O470    O    0.39518   0.45225   0.20085   1.000
    O471    O    0.30947   0.41303   0.21248   1.000
    O472    O    0.89516   0.45224   0.20086   1.000
    O473    O    0.80946   0.41302   0.21249   1.000
    O474    O    0.89516   0.79776   0.20088   1.000
    O475    O    0.80946   0.83701   0.21250   1.000
    O476    O    0.89515   0.95226   0.20086   1.000
    O477    O    0.80945   0.91303   0.21250   1.000
    O478    O    0.89517   0.29775   0.20089   1.000
    O479    O    0.80946   0.33700   0.21250   1.000
    O480    O    0.39516   0.29777   0.20090   1.000
    O481    O    0.30946   0.33701   0.21251   1.000
    O482    O    0.39516   0.79777   0.20091   1.000
    O483    O    0.30946   0.83702   0.21252   1.000
    O484    O    0.47783   0.41423   0.23829   1.000
    O485    O    0.97782   0.91424   0.23829   1.000
    O486    O    0.47783   0.91423   0.23829   1.000
    O487    O    0.97782   0.41422   0.23829   1.000
    O488    O    0.97782   0.83577   0.23830   1.000
    O489    O    0.97783   0.33576   0.23831   1.000
    O490    O    0.47782   0.33577   0.23831   1.000
    O491    O    0.47782   0.83577   0.23832   1.000
    O492    O    0.22754   0.41425   0.26161   1.000
    O493    O    0.22756   0.33579   0.26164   1.000
    O494    O    0.30466   0.37502   0.28927   1.000
    O495    O    0.72753   0.41424   0.26161   1.000
    O496    O    0.72755   0.33578   0.26163   1.000
    O497    O    0.80464   0.37501   0.28927   1.000
    O498    O    0.72752   0.91425   0.26161   1.000
    O499    O    0.72755   0.83579   0.26163   1.000
    O500    O    0.80463   0.87502   0.28926   1.000
    O501    O    0.22754   0.91426   0.26162   1.000
    O502    O    0.22756   0.83580   0.26165   1.000
    O503    O    0.30465   0.87503   0.28928   1.000
    O504    O    0.55981   0.41299   0.28729   1.000
    O505    O    0.55983   0.33702   0.28732   1.000
    O506    O    0.47375   0.37499   0.31247   1.000
    O507    O    0.05982   0.41298   0.28730   1.000
    O508    O    0.05984   0.33701   0.28732   1.000
    O509    O    0.97374   0.37499   0.31251   1.000
    O510    O    0.55980   0.91299   0.28730   1.000
    O511    O    0.55983   0.83701   0.28731   1.000
    O512    O    0.47375   0.87500   0.31251   1.000
    O513    O    0.05983   0.83702   0.28717   1.000
    O514    O    0.05981   0.91299   0.28729   1.000
    O515    O    0.97374   0.87500   0.31247   1.000
    O516    O    0.14523   0.45222   0.29898   1.000
    O517    O    0.20448   0.48065   0.30477   1.000
    O518    O    0.64521   0.95223   0.29898   1.000
    O519    O    0.70445   0.98065   0.30476   1.000
    O520    O    0.64523   0.45223   0.29897   1.000
    O521    O    0.70447   0.48064   0.30476   1.000
    O522    O    0.14522   0.95223   0.29898   1.000
    O523    O    0.20447   0.98065   0.30476   1.000
    O524    O    0.64527   0.79779   0.29902   1.000
    O525    O    0.70454   0.76939   0.30482   1.000
    O526    O    0.64526   0.29779   0.29903   1.000
    O527    O    0.70453   0.26938   0.30483   1.000
    O528    O    0.14527   0.29779   0.29904   1.000
    O529    O    0.20454   0.26940   0.30486   1.000
    O530    O    0.14527   0.79780   0.29890   1.000
    O531    O    0.20455   0.76942   0.30488   1.000
    O532    O    0.09505   0.77246   0.33076   1.000
    O533    O    0.59499   0.47756   0.33081   1.000
    O534    O    0.09499   0.97755   0.33083   1.000
    O535    O    0.59498   0.97754   0.33084   1.000
    O536    O    0.09500   0.47755   0.33083   1.000
    O537    O    0.59506   0.77245   0.33089   1.000
    O538    O    0.59505   0.27246   0.33091   1.000
    O539    O    0.09506   0.27245   0.33090   1.000
    O540    O    0.75430   0.51533   0.31845   1.000
    O541    O    0.75428   0.01534   0.31846   1.000
    O542    O    0.25429   0.01534   0.31846   1.000
    O543    O    0.25431   0.51533   0.31847   1.000
    O544    O    0.75440   0.73472   0.31854   1.000
    O545    O    0.75437   0.23470   0.31855   1.000
    O546    O    0.25440   0.23473   0.31859   1.000
    O547    O    0.25441   0.73475   0.31862   1.000
    O548    O    0.19054   0.02467   0.34107   1.000
    O549    O    0.69053   0.02466   0.34107   1.000
    O550    O    0.69056   0.52467   0.34107   1.000
    O551    O    0.19056   0.52467   0.34108   1.000
    O552    O    0.69066   0.72537   0.34117   1.000
    O553    O    0.69064   0.22537   0.34118   1.000
    O554    O    0.19066   0.22538   0.34121   1.000
    O555    O    0.19066   0.72540   0.34123   1.000
    O556    O    0.88625   0.87500   0.35181   1.000
    O557    O    0.82246   0.87502   0.37709   1.000
    O558    O    0.88626   0.37499   0.35185   1.000
    O559    O    0.82247   0.37502   0.37710   1.000
    O560    O    0.38629   0.37501   0.35182   1.000
    O561    O    0.32250   0.37503   0.37710   1.000
    O562    O    0.38629   0.87502   0.35186   1.000
    O563    O    0.32250   0.87506   0.37711   1.000
    O564    O    0.62413   0.52283   0.35686   1.000
    O565    O    0.55644   0.50991   0.36450   1.000
    O566    O    0.12414   0.52282   0.35688   1.000
    O567    O    0.05645   0.50990   0.36453   1.000
    O568    O    0.12413   0.02282   0.35688   1.000
    O569    O    0.05644   0.00989   0.36452   1.000
    O570    O    0.62411   0.02281   0.35688   1.000
    O571    O    0.55643   0.00987   0.36454   1.000
    O572    O    0.62424   0.72720   0.35698   1.000
    O573    O    0.55654   0.74009   0.36463   1.000
    O574    O    0.12423   0.72721   0.35701   1.000
    O575    O    0.05652   0.74010   0.36462   1.000
    O576    O    0.12423   0.22720   0.35700   1.000
    O577    O    0.05653   0.24009   0.36463   1.000
    O578    O    0.62422   0.22720   0.35700   1.000
    O579    O    0.55652   0.24011   0.36464   1.000
    O580    O    0.43373   0.37498   0.39706   1.000
    O581    O    0.93369   0.87498   0.39705   1.000
    O582    O    0.93370   0.37498   0.39708   1.000
    O583    O    0.43373   0.87497   0.39710   1.000
    O584    O    0.68219   0.58324   0.39296   1.000
    O585    O    0.68217   0.08323   0.39297   1.000
    O586    O    0.18219   0.58324   0.39297   1.000
    O587    O    0.18218   0.08324   0.39297   1.000
    O588    O    0.68225   0.66674   0.39303   1.000
    O589    O    0.68223   0.16673   0.39303   1.000
    O590    O    0.18224   0.16674   0.39304   1.000
    O591    O    0.18225   0.66675   0.39305   1.000
    O592    O    0.76750   0.87504   0.41349   1.000
    O593    O    0.83050   0.87502   0.43955   1.000
    O594    O    0.26755   0.37505   0.41350   1.000
    O595    O    0.33055   0.37502   0.43956   1.000
    O596    O    0.76751   0.37505   0.41350   1.000
    O597    O    0.83052   0.37502   0.43956   1.000
    O598    O    0.26755   0.87509   0.41351   1.000
    O599    O    0.33055   0.87504   0.43957   1.000
    O600    O    0.17268   0.12498   0.47781   1.000
    O601    O    0.67269   0.62499   0.47781   1.000
    O602    O    0.67267   0.12498   0.47781   1.000
    O603    O    0.17269   0.62499   0.47782   1.000
    O604    O    0.96831   0.37496   0.44900   1.000
    O605    O    0.89797   0.37499   0.45173   1.000
    O606    O    0.96829   0.87497   0.44903   1.000
    O607    O    0.89796   0.87500   0.45173   1.000
    O608    O    0.46834   0.37497   0.44904   1.000
    O609    O    0.39801   0.37499   0.45174   1.000
    O610    O    0.46834   0.87494   0.44904   1.000
    O611    O    0.39801   0.87499   0.45174   1.000
    O612    O    0.82731   0.87504   0.52216   1.000
    O613    O    0.82732   0.37503   0.52217   1.000
    O614    O    0.32735   0.37503   0.52217   1.000
    O615    O    0.32735   0.87504   0.52218   1.000
    O616    O    0.60205   0.62504   0.54825   1.000
    O617    O    0.66951   0.62498   0.56041   1.000
    O618    O    0.10204   0.12503   0.54825   1.000
    O619    O    0.16950   0.12499   0.56042   1.000
    O620    O    0.60203   0.12502   0.54825   1.000
    O621    O    0.66949   0.12500   0.56042   1.000
    O622    O    0.10206   0.62503   0.54826   1.000
    O623    O    0.16952   0.62501   0.56042   1.000
    O624    O    0.53172   0.62508   0.55095   1.000
    O625    O    0.03171   0.12506   0.55096   1.000
    O626    O    0.53170   0.12504   0.55096   1.000
    O627    O    0.03173   0.62505   0.55097   1.000
    O628    O    0.06632   0.12504   0.60290   1.000
    O629    O    0.56631   0.12503   0.60290   1.000
    O630    O    0.56633   0.62505   0.60290   1.000
    O631    O    0.06634   0.62504   0.60291   1.000
    O632    O    0.31778   0.33328   0.60694   1.000
    O633    O    0.31785   0.41678   0.60701   1.000
    O634    O    0.81775   0.33328   0.60694   1.000
    O635    O    0.81782   0.41677   0.60702   1.000
    O636    O    0.81776   0.83328   0.60693   1.000
    O637    O    0.81781   0.91679   0.60699   1.000
    O638    O    0.31778   0.83329   0.60695   1.000
    O639    O    0.31784   0.91678   0.60702   1.000
    O640    O    0.73252   0.62493   0.58645   1.000
    O641    O    0.23251   0.12495   0.58647   1.000
    O642    O    0.73250   0.12497   0.58647   1.000
    O643    O    0.23253   0.62499   0.58647   1.000
    O644    O    0.67756   0.62497   0.62287   1.000
    O645    O    0.17757   0.62501   0.62288   1.000
    O646    O    0.67754   0.12499   0.62288   1.000
    O647    O    0.17755   0.12499   0.62288   1.000
    O648    O    0.94348   0.75991   0.63532   1.000
    O649    O    0.44351   0.75993   0.63533   1.000
    O650    O    0.44351   0.25991   0.63531   1.000
    O651    O    0.94348   0.25993   0.63535   1.000
    O652    O    0.44361   0.49014   0.63543   1.000
    O653    O    0.94357   0.99014   0.63543   1.000
    O654    O    0.94357   0.49012   0.63541   1.000
    O655    O    0.44361   0.99011   0.63548   1.000
    O656    O    0.87579   0.77282   0.64296   1.000
    O657    O    0.80937   0.77464   0.65878   1.000
    O658    O    0.87578   0.27282   0.64298   1.000
    O659    O    0.80935   0.27464   0.65878   1.000
    O660    O    0.37581   0.27281   0.64295   1.000
    O661    O    0.30939   0.27464   0.65879   1.000
    O662    O    0.37581   0.77284   0.64299   1.000
    O663    O    0.30940   0.77466   0.65880   1.000
    O664    O    0.87588   0.97721   0.64307   1.000
    O665    O    0.80946   0.97536   0.65885   1.000
    O666    O    0.37593   0.47721   0.64309   1.000
    O667    O    0.30951   0.47535   0.65891   1.000
    O668    O    0.37591   0.97720   0.64311   1.000
    O669    O    0.30949   0.97536   0.65890   1.000
    O670    O    0.87589   0.47719   0.64308   1.000
    O671    O    0.80948   0.47534   0.65893   1.000
    O672    O    0.61378   0.62501   0.64813   1.000
    O673    O    0.52631   0.62503   0.68746   1.000
    O674    O    0.61376   0.12501   0.64813   1.000
    O675    O    0.52629   0.12502   0.68748   1.000
    O676    O    0.11377   0.12502   0.64813   1.000
    O677    O    0.02628   0.12502   0.68748   1.000
    O678    O    0.11379   0.62503   0.64814   1.000
    O679    O    0.02630   0.62503   0.68748   1.000
    O680    O    0.40498   0.22756   0.66904   1.000
    O681    O    0.90496   0.72756   0.66906   1.000
    O682    O    0.90496   0.22757   0.66907   1.000
    O683    O    0.40499   0.72758   0.66907   1.000
    O684    O    0.90503   0.52247   0.66912   1.000
    O685    O    0.40506   0.52248   0.66913   1.000
    O686    O    0.90502   0.02248   0.66914   1.000
    O687    O    0.40506   0.02246   0.66916   1.000
    O688    O    0.19538   0.12500   0.71071   1.000
    O689    O    0.69537   0.62499   0.71071   1.000
    O690    O    0.69536   0.12499   0.71071   1.000
    O691    O    0.19539   0.62501   0.71072   1.000
    O692    O    0.74562   0.26529   0.68140   1.000
    O693    O    0.79548   0.23062   0.69513   1.000
    O694    O    0.74564   0.76530   0.68141   1.000
    O695    O    0.79549   0.73063   0.69514   1.000
    O696    O    0.24566   0.26530   0.68142   1.000
    O697    O    0.29551   0.23063   0.69514   1.000
    O698    O    0.24566   0.76532   0.68144   1.000
    O699    O    0.29552   0.73064   0.69514   1.000
    O700    O    0.74572   0.98469   0.68148   1.000
    O701    O    0.79555   0.01937   0.69518   1.000
    O702    O    0.24574   0.98470   0.68148   1.000
    O703    O    0.29557   0.01938   0.69520   1.000
    O704    O    0.24577   0.48467   0.68153   1.000
    O705    O    0.29559   0.51937   0.69522   1.000
    O706    O    0.74574   0.48466   0.68155   1.000
    O707    O    0.79556   0.51936   0.69524   1.000
    O708    O    0.85476   0.70223   0.70094   1.000
    O709    O    0.94020   0.66301   0.71266   1.000
    O710    O    0.35477   0.20222   0.70094   1.000
    O711    O    0.44021   0.16300   0.71266   1.000
    O712    O    0.85475   0.20223   0.70094   1.000
    O713    O    0.94019   0.16300   0.71266   1.000
    O714    O    0.35478   0.70224   0.70094   1.000
    O715    O    0.44022   0.66301   0.71264   1.000
    O716    O    0.35483   0.54780   0.70099   1.000
    O717    O    0.44025   0.58704   0.71266   1.000
    O718    O    0.85479   0.04779   0.70099   1.000
    O719    O    0.94021   0.08703   0.71268   1.000
    O720    O    0.85480   0.54779   0.70101   1.000
    O721    O    0.94022   0.58703   0.71269   1.000
    O722    O    0.35482   0.04778   0.70100   1.000
    O723    O    0.44024   0.08702   0.71269   1.000
    O724    O    0.77244   0.16423   0.73834   1.000
    O725    O    0.27246   0.16423   0.73834   1.000
    O726    O    0.27247   0.66424   0.73834   1.000
    O727    O    0.77245   0.66423   0.73834   1.000
    O728    O    0.27249   0.08577   0.73836   1.000
    O729    O    0.77247   0.08576   0.73837   1.000
    O730    O    0.27249   0.58578   0.73837   1.000
    O731    O    0.77247   0.58577   0.73838   1.000
    O732    O    0.52221   0.66425   0.76166   1.000
    O733    O    0.52220   0.58580   0.76168   1.000
    O734    O    0.44524   0.62503   0.78934   1.000
    O735    O    0.02220   0.66426   0.76168   1.000
    O736    O    0.02220   0.58580   0.76170   1.000
    O737    O    0.94522   0.62502   0.78935   1.000
    O738    O    0.02219   0.16425   0.76168   1.000
    O739    O    0.02220   0.08579   0.76170   1.000
    O740    O    0.94522   0.12501   0.78935   1.000
    O741    O    0.52221   0.16425   0.76167   1.000
    O742    O    0.52220   0.08579   0.76170   1.000
    O743    O    0.44524   0.12502   0.78935   1.000
    O744    O    0.69054   0.66302   0.78746   1.000
    O745    O    0.69052   0.58699   0.78750   1.000
    O746    O    0.77678   0.62501   0.81271   1.000
    O747    O    0.69054   0.16301   0.78747   1.000
    O748    O    0.69053   0.08698   0.78749   1.000
    O749    O    0.77679   0.12500   0.81271   1.000
    O750    O    0.19054   0.66303   0.78747   1.000
    O751    O    0.19055   0.58699   0.78748   1.000
    O752    O    0.27680   0.62500   0.81269   1.000
    O753    O    0.19054   0.16302   0.78747   1.000
    O754    O    0.19056   0.08699   0.78748   1.000
    O755    O    0.27681   0.12499   0.81271   1.000
    O756    O    0.60485   0.20225   0.79908   1.000
    O757    O    0.54554   0.23061   0.80475   1.000
    O758    O    0.10485   0.20227   0.79909   1.000
    O759    O    0.04551   0.23061   0.80478   1.000
    O760    O    0.60485   0.70226   0.79908   1.000
    O761    O    0.54553   0.73061   0.80476   1.000
    O762    O    0.10485   0.70227   0.79910   1.000
    O763    O    0.04551   0.73061   0.80480   1.000
    O764    O    0.10486   0.54777   0.79912   1.000
    O765    O    0.04551   0.51944   0.80482   1.000
    O766    O    0.10487   0.04777   0.79912   1.000
    O767    O    0.04552   0.01945   0.80483   1.000
    O768    O    0.60482   0.54778   0.79914   1.000
    O769    O    0.54548   0.51946   0.80485   1.000
    O770    O    0.60484   0.04776   0.79914   1.000
    O771    O    0.54549   0.01944   0.80484   1.000
    O772    O    0.65490   0.72759   0.83111   1.000
    O773    O    0.65491   0.22758   0.83112   1.000
    O774    O    0.15489   0.22760   0.83113   1.000
    O775    O    0.15489   0.72761   0.83113   1.000
    O776    O    0.15490   0.52240   0.83114   1.000
    O777    O    0.15491   0.02240   0.83114   1.000
    O778    O    0.65486   0.02242   0.83121   1.000
    O779    O    0.65485   0.52242   0.83121   1.000
    O780    O    0.49559   0.76524   0.81835   1.000
    O781    O    0.49560   0.26524   0.81838   1.000
    O782    O    0.99555   0.26521   0.81842   1.000
    O783    O    0.99555   0.76521   0.81845   1.000
    O784    O    0.99554   0.48485   0.81848   1.000
    O785    O    0.99555   0.98486   0.81848   1.000
    O786    O    0.49552   0.98486   0.81849   1.000
    O787    O    0.49551   0.48487   0.81851   1.000
    O788    O    0.55922   0.27461   0.84118   1.000
    O789    O    0.55920   0.77461   0.84119   1.000
    O790    O    0.05917   0.27459   0.84123   1.000
    O791    O    0.05917   0.77459   0.84126   1.000
    O792    O    0.05917   0.47543   0.84127   1.000
    O793    O    0.05918   0.97544   0.84125   1.000
    O794    O    0.55912   0.97546   0.84132   1.000
    O795    O    0.55911   0.47547   0.84134   1.000
    O796    O    0.36414   0.12500   0.85201   1.000
    O797    O    0.42802   0.12504   0.87707   1.000
    O798    O    0.86412   0.12501   0.85201   1.000
    O799    O    0.92801   0.12502   0.87707   1.000
    O800    O    0.86411   0.62501   0.85201   1.000
    O801    O    0.92800   0.62502   0.87707   1.000
    O802    O    0.36413   0.62501   0.85199   1.000
    O803    O    0.42801   0.62505   0.87708   1.000
    O804    O    0.62556   0.27281   0.85717   1.000
    O805    O    0.69324   0.25993   0.86499   1.000
    O806    O    0.62555   0.77281   0.85718   1.000
    O807    O    0.69323   0.75994   0.86499   1.000
    O808    O    0.12553   0.77281   0.85722   1.000
    O809    O    0.19322   0.75996   0.86501   1.000
    O810    O    0.12554   0.97719   0.85720   1.000
    O811    O    0.19324   0.99003   0.86500   1.000
    O812    O    0.12552   0.27280   0.85722   1.000
    O813    O    0.19320   0.25995   0.86502   1.000
    O814    O    0.12553   0.47718   0.85723   1.000
    O815    O    0.19322   0.49001   0.86501   1.000
    O816    O    0.62546   0.47722   0.85732   1.000
    O817    O    0.69315   0.49006   0.86512   1.000
    O818    O    0.62546   0.97723   0.85732   1.000
    O819    O    0.69315   0.99007   0.86513   1.000
    O820    O    0.31686   0.62498   0.89736   1.000
    O821    O    0.31687   0.12497   0.89738   1.000
    O822    O    0.81685   0.12501   0.89738   1.000
    O823    O    0.81685   0.62501   0.89738   1.000
    O824    O    0.56697   0.33322   0.89307   1.000
    O825    O    0.56695   0.83322   0.89304   1.000
    O826    O    0.06696   0.91678   0.89309   1.000
    O827    O    0.06695   0.33323   0.89311   1.000
    O828    O    0.06696   0.83323   0.89311   1.000
    O829    O    0.06695   0.41677   0.89312   1.000
    O830    O    0.56690   0.41678   0.89316   1.000
    O831    O    0.56690   0.91678   0.89312   1.000
    O832    O    0.98311   0.62502   0.91327   1.000
    O833    O    0.92019   0.62502   0.93954   1.000
    O834    O    0.98312   0.12504   0.91327   1.000
    O835    O    0.92020   0.12504   0.93954   1.000
    O836    O    0.48311   0.62508   0.91328   1.000
    O837    O    0.42020   0.62504   0.93955   1.000
    O838    O    0.48312   0.12506   0.91328   1.000
    O839    O    0.42021   0.12502   0.93955   1.000
    O840    O    0.28245   0.12494   0.94944   1.000
    O841    O    0.35280   0.12498   0.95192   1.000
    O842    O    0.78244   0.12502   0.94944   1.000
    O843    O    0.85279   0.12503   0.95192   1.000
    O844    O    0.78243   0.62502   0.94944   1.000
    O845    O    0.85278   0.62502   0.95192   1.000
    O846    O    0.28244   0.62496   0.94945   1.000
    O847    O    0.35279   0.62500   0.95193   1.000
loop_
    _geom_bond_atom_site_label_1
    _geom_bond_atom_site_label_2
    _geom_bond_distance
    _geom_bond_site_symmetry_2
    _ccdc_geom_bond_type
    C333   O368      0.68100      .   S
    C205   O368      0.68100      .   S
    C333   O369      0.67953      .   S
    C201   O369      0.67953      .   S
    C333   O370      1.06396  1_554   S
    C9     O370      1.06396      .   S
    C332   O371      0.68074      .   S
    C204   O371      0.68074      .   S
    C332   O372      0.67924      .   S
    C200   O372      0.67924      .   S
    C332   O373      1.06442  1_554   S
    C8     O373      1.06442      .   S
    C334   O374      0.68074      .   S
    C206   O374      0.68074      .   S
    C334   O375      0.67917      .   S
    C202   O375      0.67917      .   S
    C334   O376      1.06449  1_554   S
    C10    O376      1.06449      .   S
    C335   O377      0.68056      .   S
    C207   O377      0.68056      .   S
    C335   O378      0.67915      .   S
    C203   O378      0.67915      .   S
    C335   O379      1.06512  1_554   S
    C11    O379      1.06512      .   S
    C111   O380      0.54273      .   S
    C207   O380      0.54273      .   S
    C108   O381      0.54291      .   S
    C204   O381      0.54291      .   S
    C110   O382      0.54291      .   S
    C206   O382      0.54291      .   S
    C109   O383      0.54294      .   S
    C205   O383      0.54294      .   S
    C207   O384      0.66917      .   S
    C343   O384      0.66917      .   S
    C206   O385      0.66882      .   S
    C342   O385      0.66882      .   S
    C204   O386      0.66882      .   S
    C340   O386      0.66882      .   S
    C205   O387      0.66882      .   S
    C341   O387      0.66882      .   S
    C27    O388      1.06685      .   S
    C263   O388      1.06685      .   S
    C27    O389      1.06711      .   S
    C287   O389      1.06711      .   S
    C27    O390      1.06439      .   S
    C359   O390      1.06439  1_556   S
    C26    O391      1.06690      .   S
    C286   O391      1.06690      .   S
    C26    O392      1.06683      .   S
    C262   O392      1.06683      .   S
    C26    O393      1.06437      .   S
    C358   O393      1.06437  1_556   S
    C25    O394      1.06682      .   S
    C261   O394      1.06682      .   S
    C25    O395      1.06717      .   S
    C285   O395      1.06717      .   S
    C25    O396      1.06450      .   S
    C357   O396      1.06450  1_556   S
    C24    O397      1.06680      .   S
    C260   O397      1.06680      .   S
    C24    O398      1.06718      .   S
    C284   O398      1.06718      .   S
    C24    O399      1.06457      .   S
    C356   O399      1.06457  1_556   S
    C107   O400      0.54242  1_655   S
    C201   O400      0.54242      .   S
    C106   O401      0.54245  1_655   S
    C200   O401      0.54245      .   S
    C105   O402      0.54225      .   S
    C203   O402      0.54225      .   S
    C104   O403      0.54224      .   S
    C202   O403      0.54224      .   S
    C201   O404      0.66477      .   S
    C337   O404      0.66477      .   S
    C202   O405      0.66480      .   S
    C338   O405      0.66480      .   S
    C203   O406      0.66481      .   S
    C339   O406      0.66481      .   S
    C200   O407      0.66472      .   S
    C336   O407      0.66472      .   S
    C61    O408      0.54249      .   S
    C157   O408      0.54249      .   S
    C60    O409      0.54250      .   S
    C156   O409      0.54250      .   S
    C79    O410      0.54248      .   S
    C175   O410      0.54248      .   S
    C78    O411      0.54249      .   S
    C174   O411      0.54249      .   S
    C63    O412      0.54249      .   S
    C159   O412      0.54249      .   S
    C62    O413      0.54247      .   S
    C158   O413      0.54247      .   S
    C77    O414      0.54250      .   S
    C173   O414      0.54250      .   S
    C76    O415      0.54248      .   S
    C172   O415      0.54248      .   S
    C260   O416      0.67985      .   S
    C156   O416      0.67985      .   S
    C260   O417      0.67897      .   S
    C152   O417      0.67897      .   S
    C261   O418      0.67984      .   S
    C157   O418      0.67984      .   S
    C261   O419      0.67893      .   S
    C153   O419      0.67893      .   S
    C286   O420      0.67989      .   S
    C174   O420      0.67989      .   S
    C286   O421      0.67918      .   S
    C170   O421      0.67918      .   S
    C262   O422      0.67984      .   S
    C158   O422      0.67984      .   S
    C262   O423      0.67896      .   S
    C154   O423      0.67896      .   S
    C263   O424      0.67983      .   S
    C159   O424      0.67983      .   S
    C263   O425      0.67897      .   S
    C155   O425      0.67897      .   S
    C287   O426      0.67984      .   S
    C175   O426      0.67984      .   S
    C287   O427      0.67898      .   S
    C171   O427      0.67898      .   S
    C285   O428      0.67982      .   S
    C173   O428      0.67982      .   S
    C285   O429      0.67894      .   S
    C169   O429      0.67894      .   S
    C284   O430      0.67983      .   S
    C172   O430      0.67983      .   S
    C284   O431      0.67898      .   S
    C168   O431      0.67898      .   S
    C343   O432      0.68946      .   S
    C339   O432      0.68946      .   S
    C343   O433      1.07702      .   S
    C23    O433      1.07702      .   S
    C340   O434      0.68945      .   S
    C336   O434      0.68945      .   S
    C340   O435      1.07691      .   S
    C20    O435      1.07691      .   S
    C342   O436      0.68944      .   S
    C338   O436      0.68944      .   S
    C342   O437      1.07697      .   S
    C22    O437      1.07697      .   S
    C341   O438      0.68942      .   S
    C337   O438      0.68942      .   S
    C341   O439      1.07689      .   S
    C21    O439      1.07689      .   S
    C157   O440      0.66829      .   S
    C268   O440      0.66829      .   S
    C156   O441      0.66814  1_545   S
    C269   O441      0.66814      .   S
    C159   O442      0.66832      .   S
    C270   O442      0.66832      .   S
    C158   O443      0.66817  1_545   S
    C271   O443      0.66817      .   S
    C175   O444      0.66829      .   S
    C295   O444      0.66829      .   S
    C174   O445      0.66828      .   S
    C294   O445      0.66828      .   S
    C172   O446      0.66832      .   S
    C292   O446      0.66832      .   S
    C173   O447      0.66831      .   S
    C293   O447      0.66831      .   S
    C337   O448      1.13186      .   S
    C13    O448      1.13186      .   S
    C338   O449      1.13171      .   S
    C14    O449      1.13171      .   S
    C339   O450      1.13172      .   S
    C15    O450      1.13172      .   S
    C336   O451      1.13176      .   S
    C12    O451      1.13176      .   S
    C152   O452      0.54223      .   S
    C58    O452      0.54223      .   S
    C152   O453      0.66572  1_545   S
    C265   O453      0.66572      .   S
    C153   O454      0.54224      .   S
    C59    O454      0.54224      .   S
    C153   O455      0.66582      .   S
    C264   O455      0.66582      .   S
    C155   O456      0.54241  1_655   S
    C57    O456      0.54241      .   S
    C155   O457      0.66583      .   S
    C266   O457      0.66583      .   S
    C154   O458      0.54242  1_655   S
    C56    O458      0.54242      .   S
    C154   O459      0.66574  1_545   S
    C267   O459      0.66574      .   S
    C170   O460      0.54242  1_655   S
    C72    O460      0.54242      .   S
    C170   O461      0.66586      .   S
    C290   O461      0.66586      .   S
    C171   O462      0.54241  1_655   S
    C73    O462      0.54241      .   S
    C171   O463      0.66582      .   S
    C291   O463      0.66582      .   S
    C168   O464      0.54220      .   S
    C74    O464      0.54220      .   S
    C168   O465      0.66579      .   S
    C288   O465      0.66579      .   S
    C169   O466      0.54223      .   S
    C75    O466      0.54223      .   S
    C169   O467      0.66585      .   S
    C289   O467      0.66585      .   S
    C269   O468      0.68954      .   S
    C265   O468      0.68954      .   S
    C269   O469      1.08288      .   S
    C21    O469      1.08288      .   S
    C268   O470      0.68954      .   S
    C264   O470      0.68954      .   S
    C268   O471      1.08288      .   S
    C20    O471      1.08288      .   S
    C270   O472      0.68952      .   S
    C266   O472      0.68952      .   S
    C270   O473      1.08277      .   S
    C22    O473      1.08277      .   S
    C295   O474      0.68954      .   S
    C291   O474      0.68954      .   S
    C295   O475      1.08297      .   S
    C23    O475      1.08297      .   S
    C271   O476      0.68953      .   S
    C267   O476      0.68953      .   S
    C271   O477      1.08276      .   S
    C23    O477      1.08276      .   S
    C294   O478      0.68955      .   S
    C290   O478      0.68955      .   S
    C294   O479      1.08294      .   S
    C22    O479      1.08294      .   S
    C292   O480      0.68952      .   S
    C288   O480      0.68952      .   S
    C292   O481      1.08263      .   S
    C20    O481      1.08263      .   S
    C293   O482      0.68954      .   S
    C289   O482      0.68954      .   S
    C293   O483      1.08271      .   S
    C21    O483      1.08271      .   S
    C264   O484      1.10884      .   S
    C14    O484      1.10884      .   S
    C267   O485      1.10892      .   S
    C13    O485      1.10892  1_455   S
    C265   O486      1.10881      .   S
    C15    O486      1.10881      .   S
    C266   O487      1.10886      .   S
    C12    O487      1.10886  1_455   S
    C291   O488      1.10918      .   S
    C13    O488      1.10918  1_455   S
    C290   O489      1.10914      .   S
    C12    O489      1.10914  1_455   S
    C288   O490      1.10910      .   S
    C14    O490      1.10910      .   S
    C289   O491      1.10900      .   S
    C15    O491      1.10900      .   S
    C20    O492      1.10619      .   S
    C300   O492      1.10619      .   S
    C20    O493      1.10610      .   S
    C228   O493      1.10610      .   S
    C20    O494      1.13685      .   S
    C348   O494      1.13685      .   S
    C22    O495      1.10618      .   S
    C302   O495      1.10618      .   S
    C22    O496      1.10605      .   S
    C230   O496      1.10605      .   S
    C22    O497      1.13680      .   S
    C350   O497      1.13680      .   S
    C23    O498      1.10626      .   S
    C303   O498      1.10626      .   S
    C23    O499      1.10602      .   S
    C231   O499      1.10602      .   S
    C23    O500      1.13669      .   S
    C351   O500      1.13669      .   S
    C21    O501      1.10618      .   S
    C301   O501      1.10618      .   S
    C21    O502      1.10607      .   S
    C229   O502      1.10607      .   S
    C21    O503      1.13686      .   S
    C349   O503      1.13686      .   S
    C14    O504      1.07944      .   S
    C306   O504      1.07944      .   S
    C14    O505      1.07944      .   S
    C234   O505      1.07944      .   S
    C14    O506      1.07620      .   S
    C352   O506      1.07620      .   S
    C12    O507      1.07942      .   S
    C304   O507      1.07942      .   S
    C12    O508      1.07945      .   S
    C232   O508      1.07945      .   S
    C12    O509      1.07687  1_455   S
    C354   O509      1.07687      .   S
    C15    O510      1.07936      .   S
    C307   O510      1.07936      .   S
    C15    O511      1.07952      .   S
    C235   O511      1.07952      .   S
    C15    O512      1.07674      .   S
    C353   O512      1.07674      .   S
    C13    O513      1.07852      .   S
    C233   O513      1.07852      .   S
    C13    O514      1.07939      .   S
    C305   O514      1.07939      .   S
    C13    O515      1.07642  1_455   S
    C355   O515      1.07642      .   S
    C300   O516      0.68939      .   S
    C304   O516      0.68939      .   S
    C300   O517      0.66585      .   S
    C177   O517      0.66585      .   S
    C303   O518      0.68938      .   S
    C307   O518      0.68938      .   S
    C303   O519      0.66576      .   S
    C178   O519      0.66576  1_545   S
    C302   O520      0.68939      .   S
    C306   O520      0.68939      .   S
    C302   O521      0.66588      .   S
    C179   O521      0.66588      .   S
    C301   O522      0.68938      .   S
    C305   O522      0.68938      .   S
    C301   O523      0.66574      .   S
    C176   O523      0.66574  1_545   S
    C231   O524      0.68936      .   S
    C235   O524      0.68936      .   S
    C231   O525      0.66583      .   S
    C131   O525      0.66583      .   S
    C230   O526      0.68936      .   S
    C234   O526      0.68936      .   S
    C230   O527      0.66585      .   S
    C130   O527      0.66585      .   S
    C228   O528      0.68936      .   S
    C232   O528      0.68936      .   S
    C228   O529      0.66584      .   S
    C128   O529      0.66584      .   S
    C229   O530      0.68868      .   S
    C233   O530      0.68868      .   S
    C229   O531      0.66585      .   S
    C129   O531      0.66585      .   S
    C233   O532      0.66966      .   S
    C133   O532      0.66966      .   S
    C306   O533      0.66811      .   S
    C183   O533      0.66811      .   S
    C305   O534      0.66804      .   S
    C180   O534      0.66804  1_545   S
    C307   O535      0.66801      .   S
    C182   O535      0.66801  1_545   S
    C304   O536      0.66816      .   S
    C181   O536      0.66816      .   S
    C235   O537      0.66812      .   S
    C135   O537      0.66812      .   S
    C234   O538      0.66816      .   S
    C134   O538      0.66816      .   S
    C232   O539      0.66816      .   S
    C132   O539      0.66816      .   S
    C83    O540      0.54224      .   S
    C179   O540      0.54224      .   S
    C82    O541      0.54222      .   S
    C178   O541      0.54222      .   S
    C80    O542      0.54222      .   S
    C176   O542      0.54222      .   S
    C81    O543      0.54222      .   S
    C177   O543      0.54222      .   S
    C35    O544      0.54222      .   S
    C131   O544      0.54222      .   S
    C34    O545      0.54222      .   S
    C130   O545      0.54222      .   S
    C32    O546      0.54222      .   S
    C128   O546      0.54222      .   S
    C33    O547      0.54222      .   S
    C129   O547      0.54222      .   S
    C176   O548      0.67907      .   S
    C296   O548      0.67907      .   S
    C178   O549      0.67900      .   S
    C298   O549      0.67900      .   S
    C179   O550      0.67900      .   S
    C299   O550      0.67900      .   S
    C177   O551      0.67902      .   S
    C297   O551      0.67902      .   S
    C131   O552      0.67900      .   S
    C227   O552      0.67900      .   S
    C130   O553      0.67900      .   S
    C226   O553      0.67900      .   S
    C128   O554      0.67905      .   S
    C224   O554      0.67905      .   S
    C129   O555      0.67901      .   S
    C225   O555      0.67901      .   S
    C351   O556      0.68940      .   S
    C355   O556      0.68940      .   S
    C351   O557      0.66476      .   S
    C211   O557      0.66476      .   S
    C350   O558      0.68951      .   S
    C354   O558      0.68951      .   S
    C350   O559      0.66476      .   S
    C210   O559      0.66476      .   S
    C348   O560      0.68939      .   S
    C352   O560      0.68939      .   S
    C348   O561      0.66474      .   S
    C208   O561      0.66474      .   S
    C349   O562      0.68952      .   S
    C353   O562      0.68952      .   S
    C349   O563      0.66474      .   S
    C209   O563      0.66474      .   S
    C183   O564      0.67967      .   S
    C299   O564      0.67967      .   S
    C183   O565      0.54249      .   S
    C87    O565      0.54249      .   S
    C181   O566      0.67965      .   S
    C297   O566      0.67965      .   S
    C181   O567      0.54247      .   S
    C85    O567      0.54247      .   S
    C180   O568      0.67966      .   S
    C296   O568      0.67966      .   S
    C180   O569      0.54248      .   S
    C84    O569      0.54248      .   S
    C182   O570      0.67965      .   S
    C298   O570      0.67965      .   S
    C182   O571      0.54247      .   S
    C86    O571      0.54247      .   S
    C135   O572      0.67966      .   S
    C227   O572      0.67966      .   S
    C135   O573      0.54249      .   S
    C39    O573      0.54249      .   S
    C133   O574      0.67966      .   S
    C225   O574      0.67966      .   S
    C133   O575      0.54246      .   S
    C37    O575      0.54246      .   S
    C132   O576      0.67967      .   S
    C224   O576      0.67967      .   S
    C132   O577      0.54247      .   S
    C36    O577      0.54247      .   S
    C134   O578      0.67965      .   S
    C226   O578      0.67965      .   S
    C134   O579      0.54246      .   S
    C38    O579      0.54246      .   S
    C352   O580      0.66939      .   S
    C212   O580      0.66939      .   S
    C355   O581      0.66930      .   S
    C215   O581      0.66930      .   S
    C354   O582      0.66859      .   S
    C214   O582      0.66859      .   S
    C353   O583      0.66868      .   S
    C213   O583      0.66868      .   S
    C299   O584      1.06573      .   S
    C3     O584      1.06573      .   S
    C298   O585      1.06578      .   S
    C2     O585      1.06578      .   S
    C297   O586      1.06578      .   S
    C1     O586      1.06578      .   S
    C296   O587      1.06570      .   S
    C0     O587      1.06570      .   S
    C227   O588      1.06535      .   S
    C3     O588      1.06535      .   S
    C226   O589      1.06539      .   S
    C2     O589      1.06539      .   S
    C224   O590      1.06532      .   S
    C0     O590      1.06532      .   S
    C225   O591      1.06539      .   S
    C1     O591      1.06539      .   S
    C211   O592      0.54226      .   S
    C115   O592      0.54226      .   S
    C211   O593      0.67933      .   S
    C347   O593      0.67933      .   S
    C208   O594      0.54226      .   S
    C112   O594      0.54226      .   S
    C208   O595      0.67934      .   S
    C344   O595      0.67934      .   S
    C210   O596      0.54226      .   S
    C114   O596      0.54226      .   S
    C210   O597      0.67934      .   S
    C346   O597      0.67934      .   S
    C209   O598      0.54226      .   S
    C113   O598      0.54226      .   S
    C209   O599      0.67935      .   S
    C345   O599      0.67935      .   S
    C0     O600      1.06300      .   S
    C320   O600      1.06300      .   S
    C3     O601      1.06293      .   S
    C323   O601      1.06293      .   S
    C2     O602      1.06297      .   S
    C322   O602      1.06297      .   S
    C1     O603      1.06292      .   S
    C321   O603      1.06292      .   S
    C214   O604      0.54271      .   S
    C118   O604      0.54271      .   S
    C214   O605      0.68074      .   S
    C346   O605      0.68074      .   S
    C215   O606      0.54292      .   S
    C119   O606      0.54292      .   S
    C215   O607      0.68067      .   S
    C347   O607      0.68067      .   S
    C212   O608      0.54290      .   S
    C116   O608      0.54290      .   S
    C212   O609      0.68066      .   S
    C344   O609      0.68066      .   S
    C213   O610      0.54294      .   S
    C117   O610      0.54294      .   S
    C213   O611      0.68069      .   S
    C345   O611      0.68069      .   S
    C347   O612      1.06304      .   S
    C19    O612      1.06304      .   S
    C346   O613      1.06301      .   S
    C18    O613      1.06301      .   S
    C344   O614      1.06303      .   S
    C16    O614      1.06303      .   S
    C345   O615      1.06305      .   S
    C17    O615      1.06305      .   S
    C323   O616      0.68068      .   S
    C199   O616      0.68068      .   S
    C323   O617      0.67923      .   S
    C195   O617      0.67923      .   S
    C320   O618      0.68066      .   S
    C196   O618      0.68066      .   S
    C320   O619      0.67931      .   S
    C192   O619      0.67931      .   S
    C322   O620      0.68067      .   S
    C198   O620      0.68067      .   S
    C322   O621      0.67930      .   S
    C194   O621      0.67930      .   S
    C321   O622      0.68067      .   S
    C197   O622      0.68067      .   S
    C321   O623      0.67917      .   S
    C193   O623      0.67917      .   S
    C103   O624      0.54294      .   S
    C199   O624      0.54294      .   S
    C100   O625      0.54291      .   S
    C196   O625      0.54291      .   S
    C102   O626      0.54291      .   S
    C198   O626      0.54291      .   S
    C101   O627      0.54291      .   S
    C197   O627      0.54291      .   S
    C196   O628      0.66868      .   S
    C328   O628      0.66868      .   S
    C198   O629      0.66868      .   S
    C330   O629      0.66868      .   S
    C199   O630      0.66868      .   S
    C331   O630      0.66868      .   S
    C197   O631      0.66868      .   S
    C329   O631      0.66868      .   S
    C16    O632      1.06545      .   S
    C272   O632      1.06545      .   S
    C16    O633      1.06585      .   S
    C248   O633      1.06585      .   S
    C18    O634      1.06541      .   S
    C274   O634      1.06541      .   S
    C18    O635      1.06578      .   S
    C250   O635      1.06578      .   S
    C19    O636      1.06545      .   S
    C275   O636      1.06545      .   S
    C19    O637      1.06565      .   S
    C251   O637      1.06565      .   S
    C17    O638      1.06539      .   S
    C273   O638      1.06539      .   S
    C17    O639      1.06578      .   S
    C249   O639      1.06578      .   S
    C99    O640      0.54230      .   S
    C195   O640      0.54230      .   S
    C96    O641      0.54226      .   S
    C192   O641      0.54226      .   S
    C98    O642      0.54226      .   S
    C194   O642      0.54226      .   S
    C97    O643      0.54224      .   S
    C193   O643      0.54224      .   S
    C195   O644      0.66490      .   S
    C327   O644      0.66490      .   S
    C193   O645      0.66497      .   S
    C325   O645      0.66497      .   S
    C194   O646      0.66481      .   S
    C326   O646      0.66481      .   S
    C192   O647      0.66481      .   S
    C324   O647      0.66481      .   S
    C71    O648      0.54248      .   S
    C167   O648      0.54248      .   S
    C69    O649      0.54255      .   S
    C165   O649      0.54255      .   S
    C68    O650      0.54230      .   S
    C164   O650      0.54230      .   S
    C70    O651      0.54246      .   S
    C166   O651      0.54246      .   S
    C52    O652      0.54245      .   S
    C148   O652      0.54245      .   S
    C55    O653      0.54248      .   S
    C151   O653      0.54248      .   S
    C54    O654      0.54225      .   S
    C150   O654      0.54225      .   S
    C53    O655      0.54249      .   S
    C149   O655      0.54249      .   S
    C275   O656      0.67966      .   S
    C167   O656      0.67966      .   S
    C275   O657      0.67902      .   S
    C163   O657      0.67902      .   S
    C274   O658      0.67966      .   S
    C166   O658      0.67966      .   S
    C274   O659      0.67901      .   S
    C162   O659      0.67901      .   S
    C272   O660      0.67961      .   S
    C164   O660      0.67961      .   S
    C272   O661      0.67901      .   S
    C160   O661      0.67901      .   S
    C273   O662      0.67967      .   S
    C165   O662      0.67967      .   S
    C273   O663      0.67899      .   S
    C161   O663      0.67899      .   S
    C251   O664      0.67969      .   S
    C151   O664      0.67969      .   S
    C251   O665      0.67883      .   S
    C147   O665      0.67883      .   S
    C248   O666      0.67966      .   S
    C148   O666      0.67966      .   S
    C248   O667      0.67898      .   S
    C144   O667      0.67898      .   S
    C249   O668      0.67966      .   S
    C149   O668      0.67966      .   S
    C249   O669      0.67899      .   S
    C145   O669      0.67899      .   S
    C250   O670      0.67959      .   S
    C150   O670      0.67959      .   S
    C250   O671      0.67903      .   S
    C146   O671      0.67903      .   S
    C331   O672      0.68952      .   S
    C327   O672      0.68952      .   S
    C331   O673      1.07646      .   S
    C29    O673      1.07646      .   S
    C330   O674      0.68952      .   S
    C326   O674      0.68952      .   S
    C330   O675      1.07669      .   S
    C28    O675      1.07669      .   S
    C328   O676      0.68953      .   S
    C324   O676      0.68953      .   S
    C328   O677      1.07685      .   S
    C30    O677      1.07685  1_655   S
    C329   O678      0.68952      .   S
    C325   O678      0.68952      .   S
    C329   O679      1.07684      .   S
    C31    O679      1.07684  1_655   S
    C164   O680      0.66840      .   S
    C280   O680      0.66840      .   S
    C167   O681      0.66815      .   S
    C283   O681      0.66815      .   S
    C166   O682      0.66815      .   S
    C282   O682      0.66815      .   S
    C165   O683      0.66814      .   S
    C281   O683      0.66814      .   S
    C150   O684      0.66851      .   S
    C259   O684      0.66851      .   S
    C148   O685      0.66819      .   S
    C257   O685      0.66819      .   S
    C151   O686      0.66801  1_565   S
    C258   O686      0.66801      .   S
    C149   O687      0.66800  1_565   S
    C256   O687      0.66800      .   S
    C324   O688      1.13658      .   S
    C4     O688      1.13658      .   S
    C327   O689      1.13649      .   S
    C7     O689      1.13649      .   S
    C326   O690      1.13657      .   S
    C6     O690      1.13657      .   S
    C325   O691      1.13642      .   S
    C5     O691      1.13642      .   S
    C162   O692      0.54222      .   S
    C66    O692      0.54222      .   S
    C162   O693      0.66584      .   S
    C278   O693      0.66584      .   S
    C163   O694      0.54222      .   S
    C67    O694      0.54222      .   S
    C163   O695      0.66584      .   S
    C279   O695      0.66584      .   S
    C160   O696      0.54222      .   S
    C64    O696      0.54222      .   S
    C160   O697      0.66582      .   S
    C276   O697      0.66582      .   S
    C161   O698      0.54222      .   S
    C65    O698      0.54222      .   S
    C161   O699      0.66577      .   S
    C277   O699      0.66577      .   S
    C147   O700      0.54227      .   S
    C51    O700      0.54227      .   S
    C147   O701      0.66602  1_565   S
    C254   O701      0.66602      .   S
    C145   O702      0.54220      .   S
    C49    O702      0.54220      .   S
    C145   O703      0.66576  1_565   S
    C252   O703      0.66576      .   S
    C144   O704      0.54223      .   S
    C48    O704      0.54223      .   S
    C144   O705      0.66586      .   S
    C253   O705      0.66586      .   S
    C146   O706      0.54222      .   S
    C50    O706      0.54222      .   S
    C146   O707      0.66585      .   S
    C255   O707      0.66585      .   S
    C283   O708      0.68939      .   S
    C279   O708      0.68939      .   S
    C283   O709      1.07955      .   S
    C31    O709      1.07955      .   S
    C280   O710      0.68935      .   S
    C276   O710      0.68935      .   S
    C280   O711      1.07953      .   S
    C28    O711      1.07953      .   S
    C282   O712      0.68937      .   S
    C278   O712      0.68937      .   S
    C282   O713      1.07957      .   S
    C30    O713      1.07957      .   S
    C281   O714      0.68932      .   S
    C277   O714      0.68932      .   S
    C281   O715      1.07944      .   S
    C29    O715      1.07944      .   S
    C257   O716      0.68937      .   S
    C253   O716      0.68937      .   S
    C257   O717      1.07933      .   S
    C29    O717      1.07933      .   S
    C258   O718      0.68938      .   S
    C254   O718      0.68938      .   S
    C258   O719      1.07948      .   S
    C30    O719      1.07948      .   S
    C259   O720      0.68936      .   S
    C255   O720      0.68936      .   S
    C259   O721      1.07951      .   S
    C31    O721      1.07951      .   S
    C256   O722      0.68939      .   S
    C252   O722      0.68939      .   S
    C256   O723      1.07945      .   S
    C28    O723      1.07945      .   S
    C278   O724      1.10622      .   S
    C6     O724      1.10622      .   S
    C276   O725      1.10622      .   S
    C4     O725      1.10622      .   S
    C277   O726      1.10637      .   S
    C5     O726      1.10637      .   S
    C279   O727      1.10625      .   S
    C7     O727      1.10625      .   S
    C252   O728      1.10643      .   S
    C4     O728      1.10643      .   S
    C254   O729      1.10635      .   S
    C6     O729      1.10635      .   S
    C253   O730      1.10648      .   S
    C5     O730      1.10648      .   S
    C255   O731      1.10638      .   S
    C7     O731      1.10638      .   S
    C29    O732      1.10896      .   S
    C243   O732      1.10896      .   S
    C29    O733      1.10874      .   S
    C315   O733      1.10874      .   S
    C29    O734      1.13228      .   S
    C361   O734      1.13228      .   S
    C31    O735      1.10904  1_655   S
    C241   O735      1.10904      .   S
    C31    O736      1.10876  1_655   S
    C313   O736      1.10876      .   S
    C31    O737      1.13184      .   S
    C363   O737      1.13184      .   S
    C30    O738      1.10905  1_655   S
    C240   O738      1.10905      .   S
    C30    O739      1.10881  1_655   S
    C312   O739      1.10881      .   S
    C30    O740      1.13179      .   S
    C362   O740      1.13179      .   S
    C28    O741      1.10886      .   S
    C242   O741      1.10886      .   S
    C28    O742      1.10869      .   S
    C314   O742      1.10869      .   S
    C28    O743      1.13181      .   S
    C360   O743      1.13181      .   S
    C7     O744      1.08268      .   S
    C247   O744      1.08268      .   S
    C7     O745      1.08286      .   S
    C319   O745      1.08286      .   S
    C7     O746      1.07694      .   S
    C367   O746      1.07694      .   S
    C6     O747      1.08265      .   S
    C246   O747      1.08265      .   S
    C6     O748      1.08284      .   S
    C318   O748      1.08284      .   S
    C6     O749      1.07697      .   S
    C366   O749      1.07697      .   S
    C5     O750      1.08287      .   S
    C245   O750      1.08287      .   S
    C5     O751      1.08276      .   S
    C317   O751      1.08276      .   S
    C5     O752      1.07658      .   S
    C365   O752      1.07658      .   S
    C4     O753      1.08289      .   S
    C244   O753      1.08289      .   S
    C4     O754      1.08265      .   S
    C316   O754      1.08265      .   S
    C4     O755      1.07697      .   S
    C364   O755      1.07697      .   S
    C242   O756      0.68957      .   S
    C246   O756      0.68957      .   S
    C242   O757      0.66586      .   S
    C138   O757      0.66586      .   S
    C240   O758      0.68954      .   S
    C244   O758      0.68954      .   S
    C240   O759      0.66581      .   S
    C136   O759      0.66581      .   S
    C243   O760      0.68952      .   S
    C247   O760      0.68952      .   S
    C243   O761      0.66581      .   S
    C139   O761      0.66581      .   S
    C241   O762      0.68955      .   S
    C245   O762      0.68955      .   S
    C241   O763      0.66586      .   S
    C137   O763      0.66586      .   S
    C313   O764      0.68954      .   S
    C317   O764      0.68954      .   S
    C313   O765      0.66582      .   S
    C184   O765      0.66582      .   S
    C312   O766      0.68952      .   S
    C316   O766      0.68952      .   S
    C312   O767      0.66571      .   S
    C185   O767      0.66571  1_565   S
    C315   O768      0.68953      .   S
    C319   O768      0.68953      .   S
    C315   O769      0.66583      .   S
    C186   O769      0.66583      .   S
    C314   O770      0.68953      .   S
    C318   O770      0.68953      .   S
    C314   O771      0.66572      .   S
    C187   O771      0.66572  1_565   S
    C247   O772      0.66834      .   S
    C143   O772      0.66834      .   S
    C246   O773      0.66832      .   S
    C142   O773      0.66832      .   S
    C244   O774      0.66833      .   S
    C140   O774      0.66833      .   S
    C245   O775      0.66831      .   S
    C141   O775      0.66831      .   S
    C317   O776      0.66829      .   S
    C188   O776      0.66829      .   S
    C316   O777      0.66818      .   S
    C189   O777      0.66818  1_565   S
    C318   O778      0.66818      .   S
    C191   O778      0.66818  1_565   S
    C319   O779      0.66830      .   S
    C190   O779      0.66830      .   S
    C41    O780      0.54229      .   S
    C139   O780      0.54229      .   S
    C40    O781      0.54222      .   S
    C138   O781      0.54222      .   S
    C42    O782      0.54242      .   S
    C136   O782      0.54242  1_455   S
    C43    O783      0.54242      .   S
    C137   O783      0.54242  1_455   S
    C90    O784      0.54241      .   S
    C184   O784      0.54241  1_455   S
    C91    O785      0.54241      .   S
    C185   O785      0.54241  1_455   S
    C89    O786      0.54223      .   S
    C187   O786      0.54223      .   S
    C88    O787      0.54223      .   S
    C186   O787      0.54223      .   S
    C138   O788      0.67898      .   S
    C238   O788      0.67898      .   S
    C139   O789      0.67896      .   S
    C239   O789      0.67896      .   S
    C136   O790      0.67900      .   S
    C236   O790      0.67900      .   S
    C137   O791      0.67897      .   S
    C237   O791      0.67897      .   S
    C184   O792      0.67896      .   S
    C308   O792      0.67896      .   S
    C185   O793      0.67877      .   S
    C309   O793      0.67877      .   S
    C187   O794      0.67898      .   S
    C311   O794      0.67898      .   S
    C186   O795      0.67894      .   S
    C310   O795      0.67894      .   S
    C360   O796      0.68947      .   S
    C364   O796      0.68947      .   S
    C360   O797      0.66483      .   S
    C216   O797      0.66483      .   S
    C362   O798      0.68945      .   S
    C366   O798      0.68945      .   S
    C362   O799      0.66477      .   S
    C218   O799      0.66477      .   S
    C363   O800      0.68946      .   S
    C367   O800      0.68946      .   S
    C363   O801      0.66477      .   S
    C219   O801      0.66477      .   S
    C361   O802      0.68935      .   S
    C365   O802      0.68935      .   S
    C361   O803      0.66476      .   S
    C217   O803      0.66476      .   S
    C142   O804      0.67983      .   S
    C238   O804      0.67983      .   S
    C142   O805      0.54247      .   S
    C46    O805      0.54247      .   S
    C143   O806      0.67983      .   S
    C239   O806      0.67983      .   S
    C143   O807      0.54247      .   S
    C47    O807      0.54247      .   S
    C141   O808      0.67985      .   S
    C237   O808      0.67985      .   S
    C141   O809      0.54248      .   S
    C45    O809      0.54248      .   S
    C189   O810      0.67979      .   S
    C309   O810      0.67979      .   S
    C189   O811      0.54247      .   S
    C93    O811      0.54247      .   S
    C140   O812      0.67983      .   S
    C236   O812      0.67983      .   S
    C140   O813      0.54248      .   S
    C44    O813      0.54248      .   S
    C188   O814      0.67983      .   S
    C308   O814      0.67983      .   S
    C188   O815      0.54247      .   S
    C92    O815      0.54247      .   S
    C190   O816      0.67985      .   S
    C310   O816      0.67985      .   S
    C190   O817      0.54249      .   S
    C94    O817      0.54249      .   S
    C191   O818      0.67985      .   S
    C311   O818      0.67985      .   S
    C191   O819      0.54248      .   S
    C95    O819      0.54248      .   S
    C365   O820      0.66927      .   S
    C221   O820      0.66927      .   S
    C364   O821      0.66874      .   S
    C220   O821      0.66874      .   S
    C366   O822      0.66874      .   S
    C222   O822      0.66874      .   S
    C367   O823      0.66874      .   S
    C223   O823      0.66874      .   S
    C238   O824      1.06722      .   S
    C10    O824      1.06722      .   S
    C239   O825      1.06682      .   S
    C11    O825      1.06682      .   S
    C309   O826      1.06713      .   S
    C9     O826      1.06713      .   S
    C236   O827      1.06714      .   S
    C8     O827      1.06714      .   S
    C237   O828      1.06713      .   S
    C9     O828      1.06713      .   S
    C308   O829      1.06687      .   S
    C8     O829      1.06687      .   S
    C310   O830      1.06686      .   S
    C10    O830      1.06686      .   S
    C311   O831      1.06645      .   S
    C11    O831      1.06645      .   S
    C219   O832      0.54243      .   S
    C121   O832      0.54243  1_455   S
    C219   O833      0.67920      .   S
    C359   O833      0.67920      .   S
    C218   O834      0.54244      .   S
    C120   O834      0.54244  1_455   S
    C218   O835      0.67919      .   S
    C358   O835      0.67919      .   S
    C217   O836      0.54225      .   S
    C123   O836      0.54225      .   S
    C217   O837      0.67920      .   S
    C357   O837      0.67920      .   S
    C216   O838      0.54225      .   S
    C122   O838      0.54225      .   S
    C216   O839      0.67915      .   S
    C356   O839      0.67915      .   S
    C220   O840      0.54295      .   S
    C124   O840      0.54295      .   S
    C220   O841      0.68073      .   S
    C356   O841      0.68073      .   S
    C222   O842      0.54293      .   S
    C126   O842      0.54293      .   S
    C222   O843      0.68076      .   S
    C358   O843      0.68076      .   S
    C223   O844      0.54293      .   S
    C127   O844      0.54293      .   S
    C223   O845      0.68075      .   S
    C359   O845      0.68075      .   S
    C221   O846      0.54294      .   S
    C125   O846      0.54294      .   S
    C221   O847      0.68075      .   S
    C357   O847      0.68075      .   S
