# CIF file generated by openbabel 2.4.90, see http://openbabel.sf.net
data_I
_chemical_name_common ''
_cell_length_a 10.3735
_cell_length_b 13.1705
_cell_length_c 19.994
_cell_angle_alpha 90.022
_cell_angle_beta 90.002
_cell_angle_gamma 90.307
_space_group_name_H-M_alt 'P 1'
_space_group_name_Hall 'P 1'
loop_
    _symmetry_equiv_pos_as_xyz
    x,y,z
loop_
    _atom_site_label
    _atom_site_type_symbol
    _atom_site_fract_x
    _atom_site_fract_y
    _atom_site_fract_z
    _atom_site_occupancy
    H0      H    0.72500   0.46204   0.00784   1.000
    H1      H    0.62632   0.44025   0.12159   1.000
    H2      H    0.79845   0.43840   0.12594   1.000
    H3      H    0.70791   0.32257   0.13127   1.000
    H4      H    0.95775   0.97362   0.79908   1.000
    H5      H    0.56864   0.08298   0.79231   1.000
    H6      H    0.55073   0.02643   0.67267   1.000
    H7      H    0.94030   0.91819   0.67945   1.000
    H8      H    0.77495   0.53799   0.50662   1.000
    H9      H    0.87333   0.55757   0.62061   1.000
    H10     H    0.70120   0.55951   0.62485   1.000
    H11     H    0.79190   0.67514   0.63123   1.000
    H12     H    0.54254   0.02673   0.29918   1.000
    H13     H    0.93163   0.91770   0.29246   1.000
    H14     H    0.94957   0.97429   0.17286   1.000
    H15     H    0.55992   0.08222   0.17959   1.000
    H16     H    0.27719   0.95905   0.49311   1.000
    H17     H    0.37660   0.93962   0.37941   1.000
    H18     H    0.20448   0.93726   0.37473   1.000
    H19     H    0.29413   0.82186   0.36857   1.000
    H20     H    0.04259   0.47158   0.70193   1.000
    H21     H    0.43323   0.58097   0.70545   1.000
    H22     H    0.45358   0.52613   0.82531   1.000
    H23     H    0.06248   0.41778   0.82178   1.000
    H24     H    0.22277   0.04094   0.99333   1.000
    H25     H    0.12339   0.05973   0.87959   1.000
    H26     H    0.29551   0.06212   0.87492   1.000
    H27     H    0.20580   0.17745   0.86854   1.000
    H28     H    0.45779   0.52775   0.20214   1.000
    H29     H    0.06706   0.41856   0.20553   1.000
    H30     H    0.04671   0.47333   0.32543   1.000
    H31     H    0.43789   0.58149   0.32204   1.000
    C32     C    0.71884   0.38615   0.03126   1.000
    C33     C    0.71291   0.39775   0.10753   1.000
    C34     C    0.76401   0.03146   0.80274   1.000
    C35     C    0.86904   0.98491   0.77105   1.000
    C36     C    0.64917   0.04659   0.76710   1.000
    C37     C    0.74445   0.96892   0.66915   1.000
    C38     C    0.63942   0.01547   0.70080   1.000
    C39     C    0.85946   0.95412   0.70468   1.000
    C40     C    0.78110   0.61345   0.53069   1.000
    C41     C    0.78685   0.60042   0.60684   1.000
    C42     C    0.73605   0.96877   0.30281   1.000
    C43     C    0.63111   0.01518   0.27107   1.000
    C44     C    0.85102   0.95392   0.26722   1.000
    C45     C    0.75549   0.03091   0.16909   1.000
    C46     C    0.86078   0.98505   0.20094   1.000
    C47     C    0.64065   0.04600   0.20472   1.000
    C48     C    0.28298   0.88360   0.46907   1.000
    C49     C    0.28958   0.89658   0.39294   1.000
    C50     C    0.23683   0.52955   0.69675   1.000
    C51     C    0.13209   0.48337   0.72934   1.000
    C52     C    0.35289   0.54498   0.73146   1.000
    C53     C    0.25900   0.46913   0.83053   1.000
    C54     C    0.36400   0.51485   0.79785   1.000
    C55     C    0.14302   0.45351   0.79579   1.000
    C56     C    0.21698   0.11627   0.96915   1.000
    C57     C    0.21039   0.10287   0.89305   1.000
    C58     C    0.26346   0.46997   0.19689   1.000
    C59     C    0.36827   0.51600   0.22954   1.000
    C60     C    0.14740   0.45450   0.23158   1.000
    C61     C    0.24129   0.53032   0.33069   1.000
    C62     C    0.13629   0.48460   0.29799   1.000
    C63     C    0.35733   0.54582   0.29601   1.000
    O64     O    0.60991   0.33263   0.00546   1.000
    O65     O    0.89013   0.66737   0.50541   1.000
    O66     O    0.39162   0.83026   0.49466   1.000
    O67     O    0.10834   0.16974   0.99464   1.000
loop_
    _geom_bond_atom_site_label_1
    _geom_bond_atom_site_label_2
    _geom_bond_distance
    _geom_bond_site_symmetry_2
    _ccdc_geom_bond_type
    O64    C32       1.42510      .   S
    H0     C32       1.10549      .   S
    C32    C33       1.53370      .   S
    C33    H1        1.09751      .   S
    C33    H2        1.09745      .   S
    C33    H3        1.09917      .   S
    C45    C46       1.40383  1_545   S
    C45    C47       1.40313      .   S
    H14    C46       1.08865      .   S
    H15    C47       1.08893      .   S
    C58    C59       1.40292      .   S
    C58    C60       1.40349      .   S
    C46    C44       1.39085      .   S
    H28    C59       1.08849      .   S
    C47    C43       1.39084      .   S
    H29    C60       1.08885      .   S
    C59    C63       1.39050      .   S
    C60    C62       1.39054      .   S
    C44    H13       1.08897      .   S
    C44    C42       1.40330      .   S
    C43    H12       1.08842      .   S
    C43    C42       1.40312  1_545   S
    C63    H31       1.08879      .   S
    C63    C61       1.40326      .   S
    C62    H30       1.08874      .   S
    C62    C61       1.40318      .   S
    H19    C49       1.09915      .   S
    H18    C49       1.09736      .   S
    H17    C49       1.09736      .   S
    C49    C48       1.53323      .   S
    C48    H16       1.10561      .   S
    C48    O66       1.42614      .   S
    O65    C40       1.42503      .   S
    H8     C40       1.10560      .   S
    C40    C41       1.53352      .   S
    C41    H9        1.09750      .   S
    C41    H10       1.09743      .   S
    C41    H11       1.09916      .   S
    C37    C38       1.40378  1_565   S
    C37    C39       1.40314      .   S
    H6     C38       1.08865      .   S
    H7     C39       1.08892      .   S
    C50    C51       1.40295      .   S
    C50    C52       1.40351      .   S
    C38    C36       1.39080      .   S
    H20    C51       1.08852      .   S
    C39    C35       1.39081      .   S
    H21    C52       1.08886      .   S
    C51    C55       1.39054      .   S
    C52    C54       1.39059      .   S
    C36    H5        1.08897      .   S
    C36    C34       1.40329      .   S
    C35    H4        1.08842      .   S
    C35    C34       1.40398  1_565   S
    C55    H23       1.08878      .   S
    C55    C53       1.40329      .   S
    C54    H22       1.08874      .   S
    C54    C53       1.40327      .   S
    H27    C57       1.09916      .   S
    H26    C57       1.09736      .   S
    H25    C57       1.09734      .   S
    C57    C56       1.53322      .   S
    C56    H24       1.10565      .   S
    C56    O67       1.42613      .   S
