# CIF file generated by openbabel 2.4.90, see http://openbabel.sf.net
data_I
_chemical_name_common ''
_cell_length_a 10.3735
_cell_length_b 13.1705
_cell_length_c 19.994
_cell_angle_alpha 90.022
_cell_angle_beta 90.002
_cell_angle_gamma 90.307
_space_group_name_H-M_alt 'P 1'
_space_group_name_Hall 'P 1'
loop_
    _symmetry_equiv_pos_as_xyz
    x,y,z
loop_
    _atom_site_label
    _atom_site_type_symbol
    _atom_site_fract_x
    _atom_site_fract_y
    _atom_site_fract_z
    _atom_site_occupancy
    Zn0     Zn   0.63333   0.18233   0.98599   1.000
    Zn1     Zn   0.56477   0.88394   0.48606   1.000
    Zn2     Zn   0.86666   0.81768   0.48597   1.000
    Zn3     Zn   0.06200   0.61364   0.51404   1.000
    Zn4     Zn   0.36641   0.68015   0.51386   1.000
    Zn5     Zn   0.43800   0.38636   0.01402   1.000
    Zn6     Zn   0.13356   0.31988   0.01384   1.000
    Zn7     Zn   0.93520   0.11607   0.98607   1.000
