# CIF file generated by openbabel 2.4.90, see http://openbabel.sf.net
data_I
_chemical_name_common ''
_cell_length_a 10.3735
_cell_length_b 13.1705
_cell_length_c 19.994
_cell_angle_alpha 90.022
_cell_angle_beta 90.002
_cell_angle_gamma 90.307
_space_group_name_H-M_alt 'P 1'
_space_group_name_Hall 'P 1'
loop_
    _symmetry_equiv_pos_as_xyz
    x,y,z
loop_
    _atom_site_label
    _atom_site_type_symbol
    _atom_site_fract_x
    _atom_site_fract_y
    _atom_site_fract_z
    _atom_site_occupancy
    C0      C    0.84310   0.33116   0.01235   1.000
    C1      C    0.77482   0.06687   0.87372   1.000
    C2      C    0.73336   0.93360   0.59816   1.000
    C3      C    0.65689   0.66875   0.51210   1.000
    C4      C    0.72517   0.93322   0.37374   1.000
    C5      C    0.76660   0.06633   0.09814   1.000
    C6      C    0.15802   0.82783   0.48742   1.000
    C7      C    0.22486   0.56464   0.62583   1.000
    C8      C    0.27068   0.43507   0.90169   1.000
    C9      C    0.34195   0.17212   0.98743   1.000
    C10     C    0.27527   0.43518   0.12588   1.000
    C11     C    0.22949   0.56467   0.40179   1.000
    O12     O    0.82864   0.24458   0.98344   1.000
    O13     O    0.94920   0.37192   0.02691   1.000
    O14     O    0.88280   0.04933   0.90312   1.000
    O15     O    0.67824   0.11128   0.89898   1.000
    O16     O    0.62378   0.94654   0.56983   1.000
    O17     O    0.83234   0.89298   0.57205   1.000
    O18     O    0.67140   0.75546   0.48342   1.000
    O19     O    0.55078   0.62802   0.52664   1.000
    O20     O    0.61715   0.95067   0.40314   1.000
    O21     O    0.82173   0.88877   0.39898   1.000
    O22     O    0.87620   0.05344   0.06981   1.000
    O23     O    0.66765   0.10703   0.07207   1.000
    O24     O    0.17151   0.74182   0.51688   1.000
    O25     O    0.05227   0.86752   0.47194   1.000
    O26     O    0.11624   0.54716   0.59683   1.000
    O27     O    0.32178   0.60901   0.60032   1.000
    O28     O    0.38048   0.44868   0.92985   1.000
    O29     O    0.17144   0.39468   0.92812   1.000
    O30     O    0.32845   0.25819   0.01685   1.000
    O31     O    0.44770   0.13242   0.97195   1.000
    O32     O    0.38382   0.45280   0.09686   1.000
    O33     O    0.17827   0.39096   0.10033   1.000
    O34     O    0.11966   0.55119   0.42993   1.000
    O35     O    0.32866   0.60525   0.42818   1.000
loop_
    _geom_bond_atom_site_label_1
    _geom_bond_atom_site_label_2
    _geom_bond_distance
    _geom_bond_site_symmetry_2
    _ccdc_geom_bond_type
    C0     O13       1.25611      .   S
    C0     O12       1.28626  1_554   S
    O30    C9        1.28524  1_554   S
    O22    C5        1.28235      .   S
    O23    C5        1.27229      .   S
    O32    C10       1.28673      .   S
    O33    C10       1.26741      .   S
    C4     O21       1.26771      .   S
    C4     O20       1.28710      .   S
    C11    O35       1.27136      .   S
    C11    O34       1.28212      .   S
    O25    C6        1.25652      .   S
    O18    C3        1.28614      .   S
    C6     O24       1.28518      .   S
    C3     O19       1.25607      .   S
    O16    C2        1.28233      .   S
    O17    C2        1.27226      .   S
    O26    C7        1.28672      .   S
    O27    C7        1.26747      .   S
    C1     O15       1.26772      .   S
    C1     O14       1.28703      .   S
    C8     O29       1.27141      .   S
    C8     O28       1.28222      .   S
    O31    C9        1.25652      .   S
