# CIF file generated by openbabel 2.4.90, see http://openbabel.sf.net
data_I
_chemical_name_common ''
_cell_length_a 10.3735
_cell_length_b 13.1705
_cell_length_c 19.994
_cell_angle_alpha 90.022
_cell_angle_beta 90.002
_cell_angle_gamma 90.307
_space_group_name_H-M_alt 'P 1'
_space_group_name_Hall 'P 1'
loop_
    _symmetry_equiv_pos_as_xyz
    x,y,z
loop_
    _atom_site_label
    _atom_site_type_symbol
    _atom_site_fract_x
    _atom_site_fract_y
    _atom_site_fract_z
    _atom_site_occupancy
    Zn0     Zn   0.63333   0.18233   0.98599   1.000
    Zn1     Zn   0.56477   0.88394   0.48606   1.000
    Zn2     Zn   0.86666   0.81768   0.48597   1.000
    Zn3     Zn   0.06200   0.61364   0.51404   1.000
    Zn4     Zn   0.36641   0.68015   0.51386   1.000
    Zn5     Zn   0.43800   0.38636   0.01402   1.000
    Zn6     Zn   0.13356   0.31988   0.01384   1.000
    Zn7     Zn   0.93520   0.11607   0.98607   1.000
    C8      C    0.84310   0.33116   0.01235   1.000
    C9      C    0.77482   0.06687   0.87372   1.000
    C10     C    0.73336   0.93360   0.59816   1.000
    C11     C    0.65689   0.66875   0.51210   1.000
    C12     C    0.72517   0.93322   0.37374   1.000
    C13     C    0.76660   0.06633   0.09814   1.000
    C14     C    0.15802   0.82783   0.48742   1.000
    C15     C    0.22486   0.56464   0.62583   1.000
    C16     C    0.27068   0.43507   0.90169   1.000
    C17     C    0.34195   0.17212   0.98743   1.000
    C18     C    0.27527   0.43518   0.12588   1.000
    C19     C    0.22949   0.56467   0.40179   1.000
    O20     O    0.82864   0.24458   0.98344   1.000
    O21     O    0.94920   0.37192   0.02691   1.000
    O22     O    0.88280   0.04933   0.90312   1.000
    O23     O    0.67824   0.11128   0.89898   1.000
    O24     O    0.62378   0.94654   0.56983   1.000
    O25     O    0.83234   0.89298   0.57205   1.000
    O26     O    0.67140   0.75546   0.48342   1.000
    O27     O    0.55078   0.62802   0.52664   1.000
    O28     O    0.61715   0.95067   0.40314   1.000
    O29     O    0.82173   0.88877   0.39898   1.000
    O30     O    0.87620   0.05344   0.06981   1.000
    O31     O    0.66765   0.10703   0.07207   1.000
    O32     O    0.17151   0.74182   0.51688   1.000
    O33     O    0.05227   0.86752   0.47194   1.000
    O34     O    0.11624   0.54716   0.59683   1.000
    O35     O    0.32178   0.60901   0.60032   1.000
    O36     O    0.38048   0.44868   0.92985   1.000
    O37     O    0.17144   0.39468   0.92812   1.000
    O38     O    0.32845   0.25819   0.01685   1.000
    O39     O    0.44770   0.13242   0.97195   1.000
    O40     O    0.38382   0.45280   0.09686   1.000
    O41     O    0.17827   0.39096   0.10033   1.000
    O42     O    0.11966   0.55119   0.42993   1.000
    O43     O    0.32866   0.60525   0.42818   1.000
    Ts44    Ts   0.62552   0.23243   0.99248   1.000
    Ts45    Ts   0.50705   0.86605   0.48893   1.000
    Ts46    Ts   0.87448   0.76758   0.49245   1.000
    Ts47    Ts   0.00471   0.63155   0.51116   1.000
    Ts48    Ts   0.37481   0.73019   0.50746   1.000
    Ts49    Ts   0.49530   0.36845   0.01117   1.000
    Ts50    Ts   0.12515   0.26983   0.00744   1.000
    Ts51    Ts   0.99291   0.13396   0.98893   1.000
    Og52    Og   0.80168   0.34949   0.01865   1.000
    Og53    Og   0.77122   0.05506   0.85006   1.000
    Og54    Og   0.73706   0.94537   0.62182   1.000
    Og55    Og   0.69829   0.65032   0.51829   1.000
    Og56    Og   0.72880   0.94507   0.35010   1.000
    Og57    Og   0.76289   0.05452   0.12179   1.000
    Og58    Og   0.19968   0.84642   0.48130   1.000
    Og59    Og   0.22885   0.55294   0.64947   1.000
    Og60    Og   0.26679   0.44642   0.87797   1.000
    Og61    Og   0.30029   0.15351   0.98134   1.000
    Og62    Og   0.27134   0.44678   0.14955   1.000
    Og63    Og   0.23342   0.55322   0.37809   1.000
loop_
    _geom_bond_atom_site_label_1
    _geom_bond_atom_site_label_2
    _geom_bond_distance
    _geom_bond_site_symmetry_2
    _ccdc_geom_bond_type
    C8     O21       1.25611      .   S
    C8     O20       1.28626  1_554   S
    Zn6    O21       2.05174  1_455   S
    Zn6    O41       2.01900      .   S
    Zn6    O37       2.01481  1_554   S
    Zn5    O38       2.03071      .   S
    Zn5    O40       1.95688      .   S
    Zn5    O36       1.96671  1_554   S
    O38    C17       1.28524  1_554   S
    O30    C13       1.28235      .   S
    O30    Zn7       1.96313  1_554   S
    O31    C13       1.27229      .   S
    O31    Zn0       2.01937  1_554   S
    O40    C18       1.28673      .   S
    O41    C18       1.26741      .   S
    C12    O29       1.26771      .   S
    C12    O28       1.28710      .   S
    O29    Zn2       2.03104      .   S
    C19    O43       1.27136      .   S
    C19    O42       1.28212      .   S
    O28    Zn1       1.95263      .   S
    O43    Zn4       2.01380      .   S
    O42    Zn3       1.96644      .   S
    O33    Zn2       2.05030  1_455   S
    O33    C14       1.25652      .   S
    O26    Zn1       2.02733      .   S
    O26    C11       1.28614      .   S
    Zn2    O25       2.01867      .   S
    Zn1    O24       1.96277      .   S
    C14    O32       1.28518      .   S
    C11    O27       1.25607      .   S
    Zn4    O27       2.05152      .   S
    Zn4    O35       2.01926      .   S
    Zn3    O32       2.03052      .   S
    Zn3    O34       1.95710      .   S
    O24    C10       1.28233      .   S
    O25    C10       1.27226      .   S
    O34    C15       1.28672      .   S
    O35    C15       1.26747      .   S
    C9     O23       1.26772      .   S
    C9     O22       1.28703      .   S
    O23    Zn0       2.03037      .   S
    C16    O37       1.27141      .   S
    C16    O36       1.28222      .   S
    O22    Zn7       1.95248      .   S
    O39    Zn0       2.05059      .   S
    O39    C17       1.25652      .   S
    O20    Zn7       2.02721      .   S
    O20    Zn0       2.18228      .   S
    O26    Zn2       2.18145      .   S
    O32    Zn4       2.18373      .   S
    O38    Zn6       2.18377      .   S
    Zn0    Ts44      0.67774      .   S
    Zn1    Ts45      0.64481      .   S
    Zn2    Ts46      0.67780      .   S
    Zn3    Ts47      0.64317      .   S
    Zn4    Ts48      0.67657      .   S
    Zn5    Ts49      0.64325      .   S
    Zn6    Ts50      0.67657      .   S
    Zn7    Ts51      0.64475      .   S
    C8     Og52      0.50977      .   S
    C9     Og53      0.49923      .   S
    C10    Og54      0.49921      .   S
    C11    Og55      0.50978      .   S
    C12    Og56      0.49927      .   S
    C13    Og57      0.49923      .   S
    C14    Og58      0.51039      .   S
    C15    Og59      0.49899      .   S
    C16    Og60      0.49901      .   S
    C17    Og61      0.51040      .   S
    C18    Og62      0.49894      .   S
    C19    Og63      0.49895      .   S
