# CIF file generated by openbabel 2.4.90, see http://openbabel.sf.net
data_I
_chemical_name_common ''
_cell_length_a 10.3735
_cell_length_b 13.1705
_cell_length_c 19.994
_cell_angle_alpha 90.022
_cell_angle_beta 90.002
_cell_angle_gamma 90.307
_space_group_name_H-M_alt 'P 1'
_space_group_name_Hall 'P 1'
loop_
    _symmetry_equiv_pos_as_xyz
    x,y,z
loop_
    _atom_site_label
    _atom_site_type_symbol
    _atom_site_fract_x
    _atom_site_fract_y
    _atom_site_fract_z
    _atom_site_occupancy
    Zr0     Zr   0.93520   0.11607   0.98607   1.000
    Zr1     Zr   0.63333   0.18233   0.98599   1.000
    Zr2     Zr   0.56477   0.88394   0.48606   1.000
    Zr3     Zr   0.86666   0.81768   0.48597   1.000
    Zr4     Zr   0.06200   0.61364   0.51404   1.000
    Zr5     Zr   0.36641   0.68015   0.51386   1.000
    Zr6     Zr   0.43800   0.38636   0.01402   1.000
    Zr7     Zr   0.13356   0.31988   0.01384   1.000
    N8      N    0.25235   0.50024   0.26378   1.000
    N9      N    0.69991   0.39711   0.07584   1.000
    O10     O    0.61193   0.37831   0.04279   1.000
    O11     O    0.66076   0.32730   0.03578   1.000
    N12     N    0.30237   0.89546   0.42464   1.000
    O13     O    0.34069   0.82533   0.46445   1.000
    O14     O    0.39028   0.87628   0.45750   1.000
    N15     N    0.24797   0.49918   0.76362   1.000
    N16     N    0.74588   0.00008   0.23599   1.000
    N17     N    0.79992   0.60164   0.57518   1.000
    O18     O    0.83916   0.67208   0.53544   1.000
    O19     O    0.88799   0.62107   0.54245   1.000
    N20     N    0.19760   0.10416   0.92475   1.000
    O21     O    0.10968   0.12353   0.95755   1.000
    O22     O    0.15927   0.17448   0.96449   1.000
    N23     N    0.75430   0.00027   0.73590   1.000
    C24     C    0.12727   0.81239   0.49208   1.000
    O25     O    0.19435   0.84399   0.47176   1.000
    O26     O    0.04337   0.82749   0.48552   1.000
    O27     O    0.12201   0.74506   0.50377   1.000
    O28     O    0.19811   0.76169   0.50372   1.000
    C29     C    0.62636   0.68408   0.50738   1.000
    O30     O    0.69291   0.65272   0.52783   1.000
    O31     O    0.54248   0.66908   0.51381   1.000
    O32     O    0.69769   0.73532   0.49604   1.000
    O33     O    0.62222   0.75189   0.49606   1.000
    C34     C    0.72135   0.92422   0.39195   1.000
    O35     O    0.72980   0.94988   0.33954   1.000
    O36     O    0.78277   0.88872   0.41721   1.000
    O37     O    0.65616   0.92076   0.41828   1.000
    C38     C    0.22096   0.57360   0.60766   1.000
    O39     O    0.23018   0.54837   0.66006   1.000
    O40     O    0.28253   0.60909   0.58238   1.000
    O41     O    0.15504   0.57700   0.58155   1.000
    C42     C    0.22594   0.57370   0.41996   1.000
    O43     O    0.15839   0.57806   0.44597   1.000
    O44     O    0.28674   0.60820   0.44549   1.000
    O45     O    0.23490   0.54878   0.36749   1.000
    C46     C    0.72983   0.92437   0.58001   1.000
    O47     O    0.73821   0.95007   0.63240   1.000
    O48     O    0.78966   0.88985   0.55451   1.000
    O49     O    0.66205   0.91981   0.55398   1.000
    C50     C    0.27912   0.42632   0.10769   1.000
    O51     O    0.26999   0.45136   0.16014   1.000
    O52     O    0.34501   0.42295   0.08156   1.000
    O53     O    0.21752   0.39087   0.08239   1.000
    C54     C    0.77015   0.07560   0.08001   1.000
    O55     O    0.76180   0.04998   0.13241   1.000
    O56     O    0.71032   0.11014   0.05452   1.000
    O57     O    0.83792   0.08018   0.05398   1.000
    C58     C    0.37270   0.18758   0.99208   1.000
    O59     O    0.45661   0.17247   0.98552   1.000
    O60     O    0.37796   0.25493   0.00376   1.000
    O61     O    0.30185   0.23831   0.00371   1.000
    O62     O    0.30562   0.15588   0.97180   1.000
    C63     C    0.87365   0.31589   0.00756   1.000
    O64     O    0.80704   0.34689   0.02819   1.000
    O65     O    0.87778   0.24811   0.99616   1.000
    O66     O    0.80232   0.26467   0.99614   1.000
    O67     O    0.95751   0.33089   0.01397   1.000
    C68     C    0.77862   0.07583   0.89194   1.000
    O69     O    0.77024   0.05027   0.83950   1.000
    O70     O    0.71720   0.11131   0.91721   1.000
    O71     O    0.84381   0.07926   0.91827   1.000
    C72     C    0.27420   0.42614   0.91988   1.000
    O73     O    0.34172   0.42183   0.94591   1.000
    O74     O    0.21335   0.39171   0.94543   1.000
    O75     O    0.26530   0.45089   0.86737   1.000
loop_
    _geom_bond_atom_site_label_1
    _geom_bond_atom_site_label_2
    _geom_bond_distance
    _geom_bond_site_symmetry_2
    _ccdc_geom_bond_type
    N9     O10       1.15254      .   S
    Zr6    O10       1.89732      .   S
    N9     O11       1.28349      .   S
    Zr1    O11       2.17039  1_556   S
    N12    O13       1.28418      .   S
    Zr5    O13       2.17033      .   S
    N12    O14       1.15313      .   S
    Zr2    O14       1.90012      .   S
    N17    O18       1.28623      .   S
    Zr3    O18       2.17532      .   S
    N17    O19       1.15155      .   S
    Zr4    O19       1.89542  1_455   S
    N20    O21       1.15299      .   S
    Zr0    O21       1.89979  1_655   S
    N20    O22       1.28484      .   S
    Zr7    O22       2.17150  1_554   S
    C24    O25       0.90528      .   S
    N12    O25       1.61094      .   S
    C24    O26       0.90343      .   S
    Zr3    O26       1.83698  1_655   S
    C24    O27       0.91845      .   S
    Zr4    O27       1.84775      .   S
    C24    O28       1.02254      .   S
    Zr5    O28       2.06457      .   S
    C29    O30       0.90413      .   S
    N17    O30       1.60919      .   S
    C29    O31       0.90049      .   S
    Zr5    O31       1.83303      .   S
    C29    O32       1.02438      .   S
    Zr3    O32       2.06613      .   S
    C29    O33       0.92266      .   S
    Zr2    O33       1.85242      .   S
    C34    O35       1.10448      .   S
    N16    O35       2.17976  1_545   S
    C34    O36       0.93968      .   S
    Zr3    O36       1.87944      .   S
    C34    O37       0.85802      .   S
    Zr2    O37       1.72235      .   S
    C38    O39       1.10349      .   S
    N15    O39       2.17793      .   S
    C38    O40       0.93752      .   S
    Zr5    O40       1.87137      .   S
    C38    O41       0.86170      .   S
    Zr4    O41       1.72970      .   S
    C42    O43       0.87475      .   S
    Zr4    O43       1.75382      .   S
    C42    O44       0.92814      .   S
    Zr5    O44       1.85470      .   S
    C42    O45       1.10331      .   S
    N8     O45       2.17741      .   S
    C46    O47       1.10382      .   S
    N23    O47       2.17844  1_545   S
    C46    O48       0.92456      .   S
    Zr3    O48       1.85112      .   S
    C46    O49       0.87658      .   S
    Zr2    O49       1.75489      .   S
    C50    O51       1.10338      .   S
    N8     O51       2.17772      .   S
    C50    O52       0.86162      .   S
    Zr6    O52       1.72949      .   S
    C50    O53       0.93750      .   S
    Zr7    O53       1.87124      .   S
    C54    O55       1.10405      .   S
    N16    O55       2.17912      .   S
    C54    O56       0.92470      .   S
    Zr1    O56       1.85161  1_556   S
    C54    O57       0.87663      .   S
    Zr0    O57       1.75511  1_556   S
    C58    O59       0.90344      .   S
    Zr1    O59       1.83711      .   S
    C58    O60       0.91851  1_556   S
    Zr6    O60       1.84791      .   S
    C58    O61       1.02264  1_556   S
    Zr7    O61       2.06471      .   S
    C58    O62       0.90538      .   S
    N20    O62       1.61116      .   S
    C63    O64       0.90392      .   S
    N9     O64       1.60869      .   S
    C63    O65       0.92252  1_554   S
    Zr0    O65       1.85214      .   S
    C63    O66       1.02434  1_554   S
    Zr1    O66       2.06638      .   S
    C63    O67       0.90024      .   S
    Zr7    O67       1.83273  1_455   S
    C68    O69       1.10430      .   S
    N23    O69       2.17933      .   S
    C68    O70       0.93953      .   S
    Zr1    O70       1.87894      .   S
    C68    O71       0.85796      .   S
    Zr0    O71       1.72220      .   S
    C72    O73       0.87461      .   S
    Zr6    O73       1.75371  1_554   S
    C72    O74       0.92851      .   S
    Zr7    O74       1.85566  1_554   S
    C72    O75       1.10346      .   S
    N15    O75       2.17772      .   S
