# CIF file generated by openbabel 2.4.90, see http://openbabel.sf.net
data_I
_chemical_name_common ''
_cell_length_a 10.3735
_cell_length_b 13.1705
_cell_length_c 19.994
_cell_angle_alpha 90.022
_cell_angle_beta 90.002
_cell_angle_gamma 90.307
_space_group_name_H-M_alt 'P 1'
_space_group_name_Hall 'P 1'
loop_
    _symmetry_equiv_pos_as_xyz
    x,y,z
loop_
    _atom_site_label
    _atom_site_type_symbol
    _atom_site_fract_x
    _atom_site_fract_y
    _atom_site_fract_z
    _atom_site_occupancy
    Zr0     Zr   0.93520   0.11607   0.98607   1.000
    Zr1     Zr   0.63333   0.18233   0.98599   1.000
    Zr2     Zr   0.56477   0.88394   0.48606   1.000
    Zr3     Zr   0.86666   0.81768   0.48597   1.000
    Zr4     Zr   0.06200   0.61364   0.51404   1.000
    Zr5     Zr   0.36641   0.68015   0.51386   1.000
    Zr6     Zr   0.43800   0.38636   0.01402   1.000
    Zr7     Zr   0.13356   0.31988   0.01384   1.000
    Zr8     Zr   0.84310   0.33116   0.01235   1.000
    Zr9     Zr   0.77482   0.06687   0.87372   1.000
    Zr10    Zr   0.73336   0.93360   0.59816   1.000
    Zr11    Zr   0.65689   0.66875   0.51210   1.000
    Zr12    Zr   0.72517   0.93322   0.37374   1.000
    Zr13    Zr   0.76660   0.06633   0.09814   1.000
    Zr14    Zr   0.15802   0.82783   0.48742   1.000
    Zr15    Zr   0.22486   0.56464   0.62583   1.000
    Zr16    Zr   0.27068   0.43507   0.90169   1.000
    Zr17    Zr   0.34195   0.17212   0.98743   1.000
    Zr18    Zr   0.27527   0.43518   0.12588   1.000
    Zr19    Zr   0.22949   0.56467   0.40179   1.000
    Zr20    Zr   0.82864   0.24458   0.98344   1.000
    Zr21    Zr   0.94920   0.37192   0.02691   1.000
    Zr22    Zr   0.88280   0.04933   0.90312   1.000
    Zr23    Zr   0.67824   0.11128   0.89898   1.000
    Zr24    Zr   0.62378   0.94654   0.56983   1.000
    Zr25    Zr   0.83234   0.89298   0.57205   1.000
    Zr26    Zr   0.67140   0.75546   0.48342   1.000
    Zr27    Zr   0.55078   0.62802   0.52664   1.000
    Zr28    Zr   0.61715   0.95067   0.40314   1.000
    Zr29    Zr   0.82173   0.88877   0.39898   1.000
    Zr30    Zr   0.87620   0.05344   0.06981   1.000
    Zr31    Zr   0.66765   0.10703   0.07207   1.000
    Zr32    Zr   0.17151   0.74182   0.51688   1.000
    Zr33    Zr   0.05227   0.86752   0.47194   1.000
    Zr34    Zr   0.11624   0.54716   0.59683   1.000
    Zr35    Zr   0.32178   0.60901   0.60032   1.000
    Zr36    Zr   0.38048   0.44868   0.92985   1.000
    Zr37    Zr   0.17144   0.39468   0.92812   1.000
    Zr38    Zr   0.32845   0.25819   0.01685   1.000
    Zr39    Zr   0.44770   0.13242   0.97195   1.000
    Zr40    Zr   0.38382   0.45280   0.09686   1.000
    Zr41    Zr   0.17827   0.39096   0.10033   1.000
    Zr42    Zr   0.11966   0.55119   0.42993   1.000
    Zr43    Zr   0.32866   0.60525   0.42818   1.000
    O44     O    0.89615   0.35154   0.01963   1.000
    O45     O    0.83587   0.28787   0.99789   1.000
    O46     O    0.04138   0.34590   0.02037   1.000
    O47     O    0.15591   0.35542   0.05708   1.000
    O48     O    0.15250   0.35728   0.97098   1.000
    O49     O    0.38322   0.32228   0.01544   1.000
    O50     O    0.41091   0.41958   0.05544   1.000
    O51     O    0.40924   0.41752   0.97193   1.000
    O52     O    0.33520   0.21516   0.00214   1.000
    O53     O    0.82140   0.05989   0.08398   1.000
    O54     O    0.90570   0.08476   0.02794   1.000
    O55     O    0.71712   0.08668   0.08511   1.000
    O56     O    0.65049   0.14468   0.02903   1.000
    O57     O    0.32954   0.44399   0.11137   1.000
    O58     O    0.22677   0.41307   0.11311   1.000
    O59     O    0.77345   0.91099   0.38636   1.000
    O60     O    0.67116   0.94195   0.38844   1.000
    O61     O    0.84419   0.85322   0.44248   1.000
    O62     O    0.27907   0.58496   0.41498   1.000
    O63     O    0.17458   0.55793   0.41586   1.000
    O64     O    0.59096   0.91731   0.44460   1.000
    O65     O    0.34753   0.64270   0.47102   1.000
    O66     O    0.09083   0.58242   0.47198   1.000
    O67     O    0.95946   0.84260   0.47896   1.000
    O68     O    0.10515   0.84767   0.47968   1.000
    O69     O    0.61809   0.81970   0.48474   1.000
    O70     O    0.66415   0.71210   0.49776   1.000
    O71     O    0.84950   0.85533   0.52901   1.000
    O72     O    0.59427   0.91524   0.52794   1.000
    O73     O    0.16477   0.78483   0.50215   1.000
    O74     O    0.60384   0.64838   0.51937   1.000
    O75     O    0.45859   0.65408   0.52025   1.000
    O76     O    0.34410   0.64458   0.55709   1.000
    O77     O    0.11676   0.67773   0.51546   1.000
    O78     O    0.08912   0.58040   0.55544   1.000
    O79     O    0.67857   0.94007   0.58399   1.000
    O80     O    0.78285   0.91329   0.58511   1.000
    O81     O    0.17055   0.55590   0.61133   1.000
    O82     O    0.27332   0.58683   0.61308   1.000
    O83     O    0.72653   0.08907   0.88635   1.000
    O84     O    0.82881   0.05810   0.88842   1.000
    O85     O    0.65578   0.14680   0.94248   1.000
    O86     O    0.22106   0.41488   0.91490   1.000
    O87     O    0.32558   0.44187   0.91577   1.000
    O88     O    0.90900   0.08270   0.94460   1.000
    O89     O    0.54051   0.15737   0.97897   1.000
    O90     O    0.39482   0.15227   0.97969   1.000
    O91     O    0.88192   0.18033   0.98475   1.000
    O92     O    0.73098   0.21345   0.98471   1.000
    O93     O    0.76903   0.78657   0.48470   1.000
    O94     O    0.26896   0.71099   0.51537   1.000
    O95     O    0.23100   0.28903   0.01534   1.000
    N96     N    0.25235   0.50024   0.26378   1.000
    O97     O    0.26086   0.47641   0.21258   1.000
    O98     O    0.24387   0.52386   0.31501   1.000
    N99     N    0.69991   0.39711   0.07584   1.000
    O100    O    0.74044   0.37788   0.04882   1.000
    O101    O    0.61193   0.37831   0.04279   1.000
    O102    O    0.66076   0.32730   0.03578   1.000
    N103    N    0.30237   0.89546   0.42464   1.000
    O104    O    0.26144   0.87559   0.45144   1.000
    O105    O    0.34069   0.82533   0.46445   1.000
    O106    O    0.39028   0.87628   0.45750   1.000
    N107    N    0.24797   0.49918   0.76362   1.000
    O108    O    0.23941   0.52314   0.71245   1.000
    O109    O    0.25641   0.47564   0.81486   1.000
    N110    N    0.74588   0.00008   0.23599   1.000
    O111    O    0.73825   0.97554   0.28713   1.000
    O112    O    0.75346   0.02435   0.18481   1.000
    N113    N    0.79992   0.60164   0.57518   1.000
    O114    O    0.75946   0.62137   0.54829   1.000
    O115    O    0.83916   0.67208   0.53544   1.000
    O116    O    0.88799   0.62107   0.54245   1.000
    N117    N    0.19760   0.10416   0.92475   1.000
    O118    O    0.10968   0.12353   0.95755   1.000
    O119    O    0.15927   0.17448   0.96449   1.000
    O120    O    0.23853   0.12418   0.95152   1.000
    N121    N    0.75430   0.00027   0.73590   1.000
    O122    O    0.74660   0.97576   0.68478   1.000
    O123    O    0.76186   0.02472   0.78707   1.000
loop_
    _geom_bond_atom_site_label_1
    _geom_bond_atom_site_label_2
    _geom_bond_distance
    _geom_bond_site_symmetry_2
    _ccdc_geom_bond_type
    Zr8    O44       0.62806      .   S
    Zr21   O44       0.62806      .   S
    Zr8    O45       0.64313  1_554   S
    Zr20   O45       0.64313      .   S
    Zr7    O46       1.02587      .   S
    Zr21   O46       1.02587  1_655   S
    Zr7    O47       1.00950      .   S
    Zr41   O47       1.00950      .   S
    Zr7    O48       1.00740  1_554   S
    Zr37   O48       1.00740      .   S
    Zr6    O49       1.01535      .   S
    Zr38   O49       1.01535      .   S
    Zr6    O50       0.97844      .   S
    Zr40   O50       0.97844      .   S
    Zr6    O51       0.98335  1_554   S
    Zr36   O51       0.98335      .   S
    Zr38   O52       0.64262      .   S
    Zr17   O52       0.64262  1_556   S
    Zr30   O53       0.64117      .   S
    Zr13   O53       0.64117      .   S
    Zr30   O54       0.98156      .   S
    Zr0    O54       0.98156  1_556   S
    Zr31   O55       0.63615      .   S
    Zr13   O55       0.63615      .   S
    Zr31   O56       1.00968      .   S
    Zr1    O56       1.00968  1_556   S
    Zr40   O57       0.64336      .   S
    Zr18   O57       0.64336      .   S
    Zr41   O58       0.63370      .   S
    Zr18   O58       0.63370      .   S
    Zr12   O59       0.63386      .   S
    Zr29   O59       0.63386      .   S
    Zr12   O60       0.64355      .   S
    Zr28   O60       0.64355      .   S
    Zr29   O61       1.01552      .   S
    Zr3    O61       1.01552      .   S
    Zr19   O62       0.63568      .   S
    Zr43   O62       0.63568      .   S
    Zr19   O63       0.64106      .   S
    Zr42   O63       0.64106      .   S
    Zr28   O64       0.97632      .   S
    Zr2    O64       0.97632      .   S
    Zr43   O65       1.00690      .   S
    Zr5    O65       1.00690      .   S
    Zr42   O66       0.98322      .   S
    Zr4    O66       0.98322      .   S
    Zr33   O67       1.02515  1_455   S
    Zr3    O67       1.02515      .   S
    Zr33   O68       0.62826      .   S
    Zr14   O68       0.62826      .   S
    Zr26   O69       1.01367      .   S
    Zr2    O69       1.01367      .   S
    Zr26   O70       0.64307      .   S
    Zr11   O70       0.64307      .   S
    Zr3    O71       1.00934      .   S
    Zr25   O71       1.00934      .   S
    Zr2    O72       0.98138      .   S
    Zr24   O72       0.98138      .   S
    Zr14   O73       0.64259      .   S
    Zr32   O73       0.64259      .   S
    Zr11   O74       0.62803      .   S
    Zr27   O74       0.62803      .   S
    Zr5    O75       1.02576      .   S
    Zr27   O75       1.02576      .   S
    Zr5    O76       1.00963      .   S
    Zr35   O76       1.00963      .   S
    Zr4    O77       1.01526      .   S
    Zr32   O77       1.01526      .   S
    Zr4    O78       0.97855      .   S
    Zr34   O78       0.97855      .   S
    Zr24   O79       0.64117      .   S
    Zr10   O79       0.64117      .   S
    Zr25   O80       0.63613      .   S
    Zr10   O80       0.63613      .   S
    Zr34   O81       0.64336      .   S
    Zr15   O81       0.64336      .   S
    Zr35   O82       0.63373      .   S
    Zr15   O82       0.63373      .   S
    Zr9    O83       0.63386      .   S
    Zr23   O83       0.63386      .   S
    Zr9    O84       0.64352      .   S
    Zr22   O84       0.64352      .   S
    Zr23   O85       1.01518      .   S
    Zr1    O85       1.01518      .   S
    Zr16   O86       0.63571      .   S
    Zr37   O86       0.63571      .   S
    Zr16   O87       0.64111      .   S
    Zr36   O87       0.64111      .   S
    Zr22   O88       0.97624      .   S
    Zr0    O88       0.97624      .   S
    Zr39   O89       1.02529      .   S
    Zr1    O89       1.02529      .   S
    Zr39   O90       0.62826      .   S
    Zr17   O90       0.62826      .   S
    Zr20   O91       1.01361      .   S
    Zr0    O91       1.01361      .   S
    Zr20   O92       1.09114      .   S
    Zr1    O92       1.09114      .   S
    Zr26   O93       1.09073      .   S
    Zr3    O93       1.09073      .   S
    Zr32   O94       1.09186      .   S
    Zr5    O94       1.09186      .   S
    Zr38   O95       1.09189      .   S
    Zr7    O95       1.09189      .   S
    N96    O97       1.07436      .   S
    Zr18   O97       1.82273      .   S
    N96    O98       1.07412      .   S
    Zr19   O98       1.82251      .   S
    N99    O100      0.73065      .   S
    Zr8    O100      1.43231      .   S
    N99    O101      1.15254      .   S
    Zr6    O101      1.89732      .   S
    N99    O102      1.28349      .   S
    Zr1    O102      2.17039  1_556   S
    N103   O104      0.73138      .   S
    Zr14   O104      1.43425      .   S
    N103   O105      1.28418      .   S
    Zr5    O105      2.17033      .   S
    N103   O106      1.15313      .   S
    Zr2    O106      1.90012      .   S
    N107   O108      1.07447      .   S
    Zr15   O108      1.82290      .   S
    N107   O109      1.07428      .   S
    Zr16   O109      1.82276      .   S
    N110   O111      1.07530  1_545   S
    Zr12   O111      1.82416      .   S
    N110   O112      1.07509      .   S
    Zr13   O112      1.82388      .   S
    N113   O114      0.73084      .   S
    Zr11   O114      1.43262      .   S
    N113   O115      1.28623      .   S
    Zr3    O115      2.17532      .   S
    N113   O116      1.15155      .   S
    Zr4    O116      1.89542  1_455   S
    N117   O118      1.15299      .   S
    Zr0    O118      1.89979  1_655   S
    N117   O119      1.28484      .   S
    Zr7    O119      2.17150  1_554   S
    N117   O120      0.73146      .   S
    Zr17   O120      1.43438      .   S
    N121   O122      1.07464  1_545   S
    Zr10   O122      1.82343      .   S
    N121   O123      1.07505      .   S
    Zr9    O123      1.82386      .   S
