# CIF file generated by openbabel 2.4.90, see http://openbabel.sf.net
data_I
_chemical_name_common 'ZnH2C6SO4'
_cell_length_a 10.009
_cell_length_b 13.154
_cell_length_c 15.547
_cell_angle_alpha 89.998
_cell_angle_beta 89.946
_cell_angle_gamma 89.972
_space_group_name_H-M_alt 'P 1'
_space_group_name_Hall 'P 1'
loop_
    _symmetry_equiv_pos_as_xyz
    x,y,z
loop_
    _atom_site_label
    _atom_site_type_symbol
    _atom_site_fract_x
    _atom_site_fract_y
    _atom_site_fract_z
    _atom_site_occupancy
    Zn0     Zn   0.11034   0.94272   0.30372   1.000
    Zn1     Zn   0.09972   0.25866   0.24793   1.000
    Zn2     Zn   0.40001   0.05837   0.80394   1.000
    Zn3     Zn   0.41059   0.74218   0.74791   1.000
    Zn4     Zn   0.89969   0.44467   0.19991   1.000
    Zn5     Zn   0.90716   0.75965   0.25572   1.000
    Zn6     Zn   0.61074   0.55899   0.69988   1.000
    Zn7     Zn   0.60025   0.24372   0.75579   1.000
    H8      H    0.53058   0.97472   0.35718   1.000
    H9      H    0.78079   0.04155   0.33785   1.000
    H10     H    0.66036   0.77795   0.46678   1.000
    H11     H    0.50461   0.86293   0.58489   1.000
    H12     H    0.97917   0.02746   0.85629   1.000
    H13     H    0.72912   0.96065   0.83663   1.000
    H14     H    0.84780   0.22540   0.96684   1.000
    H15     H    0.00388   0.14141   0.08503   1.000
    H16     H    0.47746   0.47523   0.14435   1.000
    H17     H    0.22731   0.54182   0.16487   1.000
    H18     H    0.34789   0.27677   0.03665   1.000
    H19     H    0.50422   0.36105   0.91868   1.000
    H20     H    0.03099   0.52632   0.64514   1.000
    H21     H    0.28133   0.45978   0.66521   1.000
    H22     H    0.16388   0.72474   0.53735   1.000
    H23     H    0.00694   0.64196   0.41909   1.000
    C24     C    0.46681   0.11138   0.28972   1.000
    C25     C    0.55953   0.04478   0.32507   1.000
    C26     C    0.69149   0.07957   0.31475   1.000
    C27     C    0.69768   0.17191   0.27162   1.000
    C28     C    0.31998   0.10268   0.28828   1.000
    C29     C    0.81732   0.23215   0.25201   1.000
    C30     C    0.79662   0.90492   0.48453   1.000
    C31     C    0.68199   0.84829   0.50078   1.000
    C32     C    0.59967   0.89354   0.56323   1.000
    C33     C    0.65295   0.98374   0.59465   1.000
    C34     C    0.89562   0.88313   0.41698   1.000
    C35     C    0.59445   0.04980   0.66129   1.000
    C36     C    0.04343   0.89106   0.78859   1.000
    C37     C    0.95042   0.95751   0.82398   1.000
    C38     C    0.81854   0.92274   0.81347   1.000
    C39     C    0.81262   0.83065   0.76997   1.000
    C40     C    0.19024   0.90038   0.78782   1.000
    C41     C    0.69326   0.77023   0.75029   1.000
    C42     C    0.71279   0.09754   0.98442   1.000
    C43     C    0.82672   0.15490   0.00000   1.000
    C44     C    0.90925   0.11021   0.06333   1.000
    C45     C    0.85693   0.01966   0.09472   1.000
    C46     C    0.61352   0.11862   0.91691   1.000
    C47     C    0.91563   0.95388   0.16144   1.000
    C48     C    0.54154   0.61073   0.21331   1.000
    C49     C    0.44866   0.54480   0.17731   1.000
    C50     C    0.31666   0.57942   0.18830   1.000
    C51     C    0.31051   0.67098   0.23259   1.000
    C52     C    0.68847   0.60213   0.21422   1.000
    C53     C    0.19133   0.73164   0.25287   1.000
    C54     C    0.21252   0.40448   0.01906   1.000
    C55     C    0.32673   0.34729   0.00276   1.000
    C56     C    0.40939   0.39215   0.94032   1.000
    C57     C    0.35693   0.48267   0.90893   1.000
    C58     C    0.11328   0.38345   0.08670   1.000
    C59     C    0.41600   0.54855   0.84237   1.000
    C60     C    0.96738   0.39093   0.71445   1.000
    C61     C    0.06002   0.45687   0.67815   1.000
    C62     C    0.19200   0.42230   0.68888   1.000
    C63     C    0.19823   0.33077   0.73321   1.000
    C64     C    0.82059   0.39961   0.71559   1.000
    C65     C    0.31786   0.27073   0.75324   1.000
    C66     C    0.29782   0.59625   0.51946   1.000
    C67     C    0.18426   0.65419   0.50329   1.000
    C68     C    0.10127   0.61010   0.44074   1.000
    C69     C    0.15279   0.51931   0.40917   1.000
    C70     C    0.39729   0.61697   0.58688   1.000
    C71     C    0.09305   0.45421   0.34231   1.000
    S72     S    0.54156   0.21626   0.24343   1.000
    S73     S    0.80368   0.01359   0.54675   1.000
    S74     S    0.96900   0.78647   0.74178   1.000
    S75     S    0.70673   0.98884   0.04668   1.000
    S76     S    0.46681   0.71480   0.26100   1.000
    S77     S    0.20642   0.51327   0.95688   1.000
    S78     S    0.04214   0.28688   0.76202   1.000
    S79     S    0.30280   0.48757   0.45707   1.000
    O80     O    0.26807   0.02675   0.32664   1.000
    O81     O    0.79975   0.31510   0.21100   1.000
    O82     O    0.98223   0.95216   0.39998   1.000
    O83     O    0.48280   0.02156   0.69308   1.000
    O84     O    0.25835   0.17283   0.24785   1.000
    O85     O    0.88474   0.79785   0.37862   1.000
    O86     O    0.66024   0.12957   0.68190   1.000
    O87     O    0.92954   0.19638   0.27788   1.000
    O88     O    0.24003   0.97697   0.82644   1.000
    O89     O    0.71107   0.68848   0.70756   1.000
    O90     O    0.52824   0.04860   0.89989   1.000
    O91     O    0.02698   0.98226   0.19340   1.000
    O92     O    0.25400   0.83099   0.74781   1.000
    O93     O    0.62251   0.20409   0.87872   1.000
    O94     O    0.84984   0.87395   0.18187   1.000
    O95     O    0.58103   0.80430   0.77783   1.000
    O96     O    0.74038   0.52685   0.17480   1.000
    O97     O    0.21025   0.81318   0.29573   1.000
    O98     O    0.02786   0.45346   0.10372   1.000
    O99     O    0.52747   0.52001   0.81045   1.000
    O100    O    0.75040   0.67134   0.25559   1.000
    O101    O    0.12237   0.29802   0.12499   1.000
    O102    O    0.35065   0.62875   0.82200   1.000
    O103    O    0.07869   0.69814   0.22580   1.000
    O104    O    0.76899   0.47538   0.67681   1.000
    O105    O    0.30061   0.18896   0.79595   1.000
    O106    O    0.48267   0.54696   0.60386   1.000
    O107    O    0.98288   0.48461   0.30992   1.000
    O108    O    0.75864   0.32984   0.75629   1.000
    O109    O    0.38847   0.70246   0.62517   1.000
    O110    O    0.15655   0.37314   0.32216   1.000
    O111    O    0.42985   0.30547   0.72586   1.000
loop_
    _geom_bond_atom_site_label_1
    _geom_bond_atom_site_label_2
    _geom_bond_distance
    _geom_bond_site_symmetry_2
    _ccdc_geom_bond_type
    C43    C44       1.41362      .   S
    C43    H14       1.08178  1_554   S
    C43    C42       1.38913  1_554   S
    C55    C54       1.39128      .   S
    C55    H18       1.08761      .   S
    C55    C56       1.40498  1_554   S
    C54    C58       1.47220      .   S
    C54    S77       1.72794  1_554   S
    S75    C45       1.72767  1_565   S
    S75    C42       1.72768  1_564   S
    C44    H15       1.08643  1_655   S
    C44    C45       1.38973      .   S
    C58    O98       1.28367      .   S
    C58    O101      1.27479      .   S
    C45    C47       1.47315  1_545   S
    O98    Zn4       1.97280  1_455   S
    O101   Zn1       1.99306      .   S
    H16    C49       1.08747      .   S
    C47    O94       1.28076      .   S
    C47    O91       1.27668  1_655   S
    H17    C50       1.08543      .   S
    O96    Zn4       1.96540      .   S
    O96    C52       1.27479      .   S
    C49    C50       1.40748      .   S
    C49    C48       1.38976      .   S
    O94    Zn5       1.97680      .   S
    C50    C51       1.38871      .   S
    O91    Zn0       1.97742      .   S
    Zn4    O81       1.98408      .   S
    Zn4    O107      1.97425      .   S
    O81    C29       1.27586      .   S
    C48    C52       1.47495      .   S
    C48    S76       1.72661      .   S
    C52    O100      1.27590      .   S
    O103   C53       1.28201      .   S
    O103   Zn5       1.95342  1_455   S
    C51    C53       1.46876      .   S
    C51    S76       1.72531      .   S
    S72    C27       1.72468      .   S
    S72    C24       1.72651      .   S
    O84    Zn1       1.94769      .   S
    O84    C28       1.27572      .   S
    Zn1    O87       1.94664  1_455   S
    Zn1    O110      1.98118      .   S
    C29    C27       1.46806      .   S
    C29    O87       1.28261      .   S
    C53    O97       1.27713      .   S
    O100   Zn5       1.95263      .   S
    Zn5    O85       1.98821      .   S
    C27    C26       1.38884      .   S
    C28    C24       1.47426      .   S
    C28    O80       1.27400      .   S
    C24    C25       1.38955      .   S
    O97    Zn0       1.97918      .   S
    Zn0    O80       1.96054  1_565   S
    Zn0    O82       1.97383  1_455   S
    O107   C71       1.27678  1_655   S
    C26    C25       1.40702      .   S
    C26    H9        1.08542      .   S
    O110   C71       1.27999      .   S
    C25    H8        1.08742  1_545   S
    C71    C69       1.47406      .   S
    O85    C34       1.27521      .   S
    O82    C34       1.28305      .   S
    C69    C68       1.38994      .   S
    C69    S79       1.72767      .   S
    C34    C30       1.47132      .   S
    H23    C68       1.08656      .   S
    C68    C67       1.40499      .   S
    S79    C66       1.72829      .   S
    H10    C31       1.08758      .   S
    C30    C31       1.39116      .   S
    C30    S73       1.72748  1_565   S
    C31    C32       1.40489      .   S
    C67    C66       1.39125      .   S
    C67    H22       1.08762      .   S
    C66    C70       1.47193      .   S
    S73    C33       1.72721  1_545   S
    C32    H11       1.08650      .   S
    C32    C33       1.38992      .   S
    C70    O106      1.28353      .   S
    C70    O109      1.27542      .   S
    C33    C35       1.47291  1_565   S
    O106   Zn6       1.97508      .   S
    O109   Zn3       1.99111      .   S
    H20    C61       1.08742      .   S
    C35    O86       1.28010      .   S
    C35    O83       1.27695      .   S
    H21    C62       1.08528      .   S
    O104   Zn6       1.96064      .   S
    O104   C64       1.27411      .   S
    C61    C62       1.40692      .   S
    C61    C60       1.38933  1_455   S
    O86    Zn7       1.98307      .   S
    C62    C63       1.38867      .   S
    O83    Zn2       1.97194      .   S
    Zn6    O89       1.98143      .   S
    Zn6    O99       1.97739      .   S
    O89    C41       1.27634      .   S
    C60    C64       1.47377      .   S
    C60    S78       1.72626  1_655   S
    C64    O108      1.27557      .   S
    O111   C65       1.28308      .   S
    O111   Zn7       1.94556      .   S
    C63    C65       1.46771      .   S
    C63    S78       1.72458      .   S
    S74    C39       1.72556      .   S
    S74    C36       1.72604  1_655   S
    O92    Zn3       1.95430      .   S
    O92    C40       1.27511      .   S
    Zn3    O95       1.94860      .   S
    Zn3    O102      1.97804      .   S
    C41    C39       1.46764      .   S
    C41    O95       1.28247      .   S
    C65    O105      1.27565      .   S
    Zn7    O108      1.94898      .   S
    Zn7    O93       1.99358      .   S
    C39    C38       1.38871      .   S
    C40    C36       1.47469      .   S
    C40    O88       1.27477      .   S
    C36    C37       1.38981  1_455   S
    O105   Zn2       1.98868      .   S
    Zn2    O88       1.95787  1_545   S
    Zn2    O90       1.97295      .   S
    O99    C59       1.27699      .   S
    C38    C37       1.40675      .   S
    C38    H13       1.08556      .   S
    O102   C59       1.28090      .   S
    C37    H12       1.08739  1_565   S
    C59    C57       1.47327      .   S
    O93    C46       1.27464      .   S
    O90    C46       1.28381      .   S
    C57    C56       1.38985      .   S
    C57    S77       1.72759      .   S
    C46    C42       1.47220      .   S
    H19    C56       1.08646      .   S
