# CIF file generated by openbabel 2.4.90, see http://openbabel.sf.net
data_I
_chemical_name_common ''
_cell_length_a 14.826
_cell_length_b 21.759
_cell_length_c 12.748
_cell_angle_alpha 107.622
_cell_angle_beta 89.997
_cell_angle_gamma 90
_space_group_name_H-M_alt 'P 1'
_space_group_name_Hall 'P 1'
loop_
    _symmetry_equiv_pos_as_xyz
    x,y,z
loop_
    _atom_site_label
    _atom_site_type_symbol
    _atom_site_fract_x
    _atom_site_fract_y
    _atom_site_fract_z
    _atom_site_occupancy
    C0      C    0.00000   0.00000   0.99970   1.000
    C1      C    0.00000   0.49917   0.00000   1.000
    C2      C    0.50000   0.99999   0.00021   1.000
    C3      C    0.50000   0.50080   0.99995   1.000
    C4      C    0.10518   0.30898   0.02146   1.000
    C5      C    0.10456   0.80906   0.02178   1.000
    C6      C    0.60438   0.30877   0.02090   1.000
    C7      C    0.60501   0.80883   0.02130   1.000
    C8      C    0.10501   0.19112   0.97864   1.000
    C9      C    0.10439   0.69119   0.97898   1.000
    C10     C    0.60456   0.19090   0.97816   1.000
    C11     C    0.60518   0.69098   0.97849   1.000
    C12     C    0.39544   0.19090   0.97818   1.000
    C13     C    0.39482   0.69098   0.97851   1.000
    C14     C    0.89499   0.19113   0.97866   1.000
    C15     C    0.89561   0.69119   0.97899   1.000
    C16     C    0.39561   0.30877   0.02000   1.000
    C17     C    0.39499   0.80884   0.02132   1.000
    C18     C    0.89481   0.30898   0.02148   1.000
    C19     C    0.89543   0.80906   0.02180   1.000
    C20     C    0.00000   0.48541   0.75645   1.000
    C21     C    1.00000   0.98549   0.75560   1.000
    C22     C    0.49999   0.48596   0.75500   1.000
    C23     C    0.50000   0.98559   0.75630   1.000
    C24     C    0.00001   0.39994   0.57235   1.000
    C25     C    0.00001   0.89976   0.57180   1.000
    C26     C    0.50000   0.40012   0.57195   1.000
    C27     C    0.50000   0.89987   0.57250   1.000
    C28     C    0.00000   0.25785   0.74780   1.000
    C29     C    0.00001   0.75817   0.74829   1.000
    C30     C    0.50000   0.25873   0.74880   1.000
    C31     C    0.49999   0.75823   0.74885   1.000
    C32     C    0.00000   0.34940   0.92257   1.000
    C33     C    1.00000   0.84996   0.92268   1.000
    C34     C    0.49999   0.35063   0.92306   1.000
    C35     C    0.50000   0.85002   0.92331   1.000
    C36     C    0.00000   0.01438   0.24364   1.000
    C37     C    0.00001   0.51401   0.24430   1.000
    C38     C    0.50000   0.01448   0.24436   1.000
    C39     C    0.50000   0.51455   0.24353   1.000
    C40     C    0.00000   0.10010   0.42740   1.000
    C41     C    1.00000   0.59985   0.42803   1.000
    C42     C    0.49999   0.10021   0.42813   1.000
    C43     C    0.50000   0.60003   0.42763   1.000
    C44     C    0.00000   0.24174   0.25112   1.000
    C45     C    0.00000   0.74124   0.25116   1.000
    C46     C    0.50000   0.24180   0.25167   1.000
    C47     C    0.50000   0.74211   0.25217   1.000
    C48     C    0.00000   0.14996   0.07666   1.000
    C49     C    0.00001   0.64933   0.07691   1.000
    C50     C    0.50000   0.15001   0.07728   1.000
    C51     C    0.50000   0.65056   0.07740   1.000
    C52     C    0.17062   0.42371   0.05741   1.000
    C53     C    0.17030   0.92394   0.05730   1.000
    C54     C    0.67008   0.42401   0.05715   1.000
    C55     C    0.67040   0.92388   0.05749   1.000
    C56     C    0.16936   0.28335   0.01164   1.000
    C57     C    0.16874   0.78342   0.01197   1.000
    C58     C    0.66863   0.28324   0.01139   1.000
    C59     C    0.66926   0.78330   0.01171   1.000
    C60     C    0.17041   0.07609   0.94246   1.000
    C61     C    0.17009   0.57596   0.94280   1.000
    C62     C    0.67030   0.07602   0.94265   1.000
    C63     C    0.67062   0.57625   0.94256   1.000
    C64     C    0.16927   0.21666   0.98825   1.000
    C65     C    0.16864   0.71673   0.98857   1.000
    C66     C    0.66873   0.21654   0.98798   1.000
    C67     C    0.66936   0.71662   0.98830   1.000
    C68     C    0.32971   0.07603   0.94265   1.000
    C69     C    0.32938   0.57625   0.94257   1.000
    C70     C    0.82959   0.07609   0.94246   1.000
    C71     C    0.82991   0.57596   0.94283   1.000
    C72     C    0.33126   0.21654   0.98800   1.000
    C73     C    0.33064   0.71662   0.98832   1.000
    C74     C    0.83073   0.21666   0.98825   1.000
    C75     C    0.83136   0.71673   0.98858   1.000
    C76     C    0.32991   0.42401   0.05715   1.000
    C77     C    0.32959   0.92388   0.05749   1.000
    C78     C    0.82937   0.42372   0.05740   1.000
    C79     C    0.82969   0.92394   0.05730   1.000
    C80     C    0.33136   0.28324   0.01139   1.000
    C81     C    0.33073   0.78330   0.01173   1.000
    C82     C    0.83063   0.28335   0.01166   1.000
    C83     C    0.83125   0.78342   0.01197   1.000
    C84     C    0.25038   0.38907   0.04691   1.000
    C85     C    0.24990   0.88913   0.04711   1.000
    C86     C    0.74960   0.38907   0.04692   1.000
    C87     C    0.75009   0.88913   0.04711   1.000
    C88     C    0.25040   0.31856   0.02350   1.000
    C89     C    0.24979   0.81862   0.02380   1.000
    C90     C    0.74958   0.31855   0.02352   1.000
    C91     C    0.75021   0.81862   0.02381   1.000
    C92     C    0.25010   0.11083   0.95284   1.000
    C93     C    0.24962   0.61089   0.95306   1.000
    C94     C    0.74991   0.11083   0.95284   1.000
    C95     C    0.75039   0.61089   0.95300   1.000
    C96     C    0.25022   0.18134   0.97615   1.000
    C97     C    0.24960   0.68141   0.97640   1.000
    C98     C    0.74978   0.18134   0.97615   1.000
    C99     C    0.75041   0.68141   0.97640   1.000
    C100    C    0.00000   0.43425   0.74960   1.000
    C101    C    0.00004   0.93437   0.74907   1.000
    C102    C    0.50002   0.43486   0.74919   1.000
    C103    C    0.50000   0.93446   0.74974   1.000
    C104    C    0.00000   0.38683   0.64820   1.000
    C105    C    0.99997   0.88680   0.64790   1.000
    C106    C    0.49998   0.38723   0.64808   1.000
    C107    C    0.50000   0.88691   0.64856   1.000
    C108    C    0.00001   0.32144   0.64477   1.000
    C109    C    0.00004   0.82146   0.64474   1.000
    C110    C    0.50002   0.32191   0.64507   1.000
    C111    C    0.49999   0.82157   0.64500   1.000
    C112    C    0.00000   0.27150   0.54331   1.000
    C113    C    0.99999   0.77136   0.54344   1.000
    C114    C    0.49999   0.27177   0.54382   1.000
    C115    C    0.50000   0.77152   0.54407   1.000
    C116    C    0.00000   0.30751   0.74579   1.000
    C117    C    0.99997   0.80777   0.74597   1.000
    C118    C    0.49998   0.30830   0.74637   1.000
    C119    C    0.50000   0.80784   0.74658   1.000
    C120    C    0.00000   0.35820   0.84294   1.000
    C121    C    0.00000   0.85861   0.84293   1.000
    C122    C    0.50002   0.35920   0.84325   1.000
    C123    C    0.49999   0.85866   0.84356   1.000
    C124    C    0.99999   0.06551   0.25022   1.000
    C125    C    0.99996   0.56511   0.25079   1.000
    C126    C    0.49999   0.06560   0.25089   1.000
    C127    C    0.50001   0.56571   0.25038   1.000
    C128    C    0.00001   0.11306   0.35140   1.000
    C129    C    0.00004   0.61274   0.35100   1.000
    C130    C    0.50000   0.11317   0.35206   1.000
    C131    C    0.49999   0.61313   0.35170   1.000
    C132    C    0.99999   0.17840   0.35457   1.000
    C133    C    0.99996   0.67806   0.35490   1.000
    C134    C    0.49999   0.17851   0.35522   1.000
    C135    C    0.50001   0.67853   0.35520   1.000
    C136    C    1.00000   0.22845   0.45590   1.000
    C137    C    0.00002   0.72820   0.45615   1.000
    C138    C    0.50000   0.22861   0.45652   1.000
    C139    C    0.49999   0.72847   0.45666   1.000
    C140    C    0.00001   0.19214   0.25339   1.000
    C141    C    0.00004   0.69166   0.25360   1.000
    C142    C    0.50000   0.19220   0.25399   1.000
    C143    C    0.49999   0.69245   0.25418   1.000
    C144    C    0.99999   0.14131   0.15641   1.000
    C145    C    0.99996   0.64076   0.15672   1.000
    C146    C    0.49999   0.14136   0.15703   1.000
    C147    C    0.50001   0.64176   0.15703   1.000
    C148    C    0.10160   0.45198   0.06774   1.000
    C149    C    0.10148   0.95242   0.06735   1.000
    C150    C    0.60147   0.45275   0.06726   1.000
    C151    C    0.60157   0.95236   0.06772   1.000
    C152    C    0.10158   0.04760   0.93223   1.000
    C153    C    0.10149   0.54721   0.93270   1.000
    C154    C    0.60148   0.04754   0.93260   1.000
    C155    C    0.60161   0.54798   0.93223   1.000
    C156    C    0.39852   0.04754   0.93260   1.000
    C157    C    0.39840   0.54798   0.93224   1.000
    C158    C    0.89843   0.04761   0.93223   1.000
    C159    C    0.89852   0.54721   0.93272   1.000
    C160    C    0.39851   0.45275   0.06727   1.000
    C161    C    0.39842   0.95236   0.06773   1.000
    C162    C    0.89838   0.45198   0.06770   1.000
    C163    C    0.89850   0.95243   0.06736   1.000
    C164    C    0.00000   0.42048   0.84572   1.000
    C165    C    0.99998   0.92084   0.84539   1.000
    C166    C    0.49998   0.42141   0.84550   1.000
    C167    C    0.50000   0.92088   0.84602   1.000
    C168    C    0.00001   0.07909   0.15394   1.000
    C169    C    0.00003   0.57856   0.15440   1.000
    C170    C    0.50000   0.07913   0.15457   1.000
    C171    C    0.49999   0.57948   0.15426   1.000
    O172    O    0.94919   0.47557   0.03385   1.000
    O173    O    0.05080   0.47557   0.03387   1.000
    O174    O    0.00002   0.53886   0.07720   1.000
    O175    O    0.00000   0.45982   0.92286   1.000
    O176    O    0.05075   0.52319   0.96635   1.000
    O177    O    0.94926   0.52319   0.96636   1.000
    O178    O    0.55078   0.97617   0.03397   1.000
    O179    O    0.44921   0.97618   0.03397   1.000
    O180    O    0.50000   0.03956   0.07739   1.000
    O181    O    0.50000   0.96044   0.92312   1.000
    O182    O    0.44926   0.02376   0.96641   1.000
    O183    O    0.55074   0.02376   0.96641   1.000
    O184    O    0.63650   0.29600   0.01615   1.000
    O185    O    0.70911   0.30089   0.01746   1.000
    O186    O    0.66868   0.24989   0.99969   1.000
    O187    O    0.36348   0.29600   0.01570   1.000
    O188    O    0.29088   0.30090   0.01745   1.000
    O189    O    0.33131   0.24989   0.99970   1.000
    O190    O    0.13727   0.29616   0.01655   1.000
    O191    O    0.20988   0.30095   0.01757   1.000
    O192    O    0.16931   0.25000   0.99995   1.000
    O193    O    0.86272   0.29617   0.01657   1.000
    O194    O    0.79011   0.30095   0.01759   1.000
    O195    O    0.83068   0.25000   0.99996   1.000
    O196    O    0.63713   0.79607   0.01651   1.000
    O197    O    0.70973   0.80096   0.01776   1.000
    O198    O    0.66931   0.74996   0.00001   1.000
    O199    O    0.36286   0.79607   0.01653   1.000
    O200    O    0.29026   0.80096   0.01777   1.000
    O201    O    0.33069   0.74996   0.00003   1.000
    O202    O    0.13665   0.79624   0.01688   1.000
    O203    O    0.20926   0.80102   0.01789   1.000
    O204    O    0.16869   0.75007   0.00027   1.000
    O205    O    0.86334   0.79624   0.01689   1.000
    O206    O    0.79073   0.80102   0.01789   1.000
    O207    O    0.83131   0.75008   0.00028   1.000
    O208    O    0.25039   0.35381   0.03521   1.000
    O209    O    0.74959   0.35381   0.03522   1.000
    O210    O    0.24984   0.85388   0.03546   1.000
    O211    O    0.75015   0.85387   0.03546   1.000
    O212    O    0.29015   0.40654   0.05203   1.000
    O213    O    0.21050   0.40639   0.05216   1.000
    O214    O    0.70984   0.40654   0.05204   1.000
    O215    O    0.78948   0.40639   0.05216   1.000
    O216    O    0.21010   0.90653   0.05221   1.000
    O217    O    0.28975   0.90650   0.05230   1.000
    O218    O    0.78989   0.90653   0.05221   1.000
    O219    O    0.71024   0.90650   0.05230   1.000
    O220    O    0.63578   0.43838   0.06221   1.000
    O221    O    0.36421   0.43838   0.06221   1.000
    O222    O    0.13589   0.93818   0.06233   1.000
    O223    O    0.86410   0.93818   0.06233   1.000
    O224    O    0.86387   0.43785   0.06255   1.000
    O225    O    0.13611   0.43785   0.06258   1.000
    O226    O    0.63598   0.93812   0.06261   1.000
    O227    O    0.36400   0.93812   0.06261   1.000
    O228    O    0.55074   0.47678   0.03361   1.000
    O229    O    0.44925   0.47678   0.03361   1.000
    O230    O    0.05074   0.97621   0.03353   1.000
    O231    O    0.94925   0.97621   0.03353   1.000
    O232    O    1.00000   0.14563   0.11654   1.000
    O233    O    0.99999   0.64504   0.11682   1.000
    O234    O    0.50000   0.14569   0.11716   1.000
    O235    O    0.50000   0.64616   0.11722   1.000
    O236    O    0.00000   0.11020   0.15518   1.000
    O237    O    0.00000   0.07230   0.20208   1.000
    O238    O    0.00000   0.03954   0.07682   1.000
    O239    O    0.50000   0.61062   0.15565   1.000
    O240    O    0.50000   0.57260   0.20232   1.000
    O241    O    0.49999   0.54014   0.07711   1.000
    O242    O    1.00000   0.60966   0.15556   1.000
    O243    O    1.00000   0.57183   0.20260   1.000
    O244    O    0.50000   0.11025   0.15580   1.000
    O245    O    0.50000   0.07237   0.20273   1.000
    O246    O    0.00000   0.16672   0.20490   1.000
    O247    O    0.00000   0.66621   0.20516   1.000
    O248    O    0.50000   0.16678   0.20551   1.000
    O249    O    0.50000   0.66711   0.20561   1.000
    O250    O    0.50000   0.54013   0.24696   1.000
    O251    O    1.00000   0.03995   0.24693   1.000
    O252    O    0.99998   0.53956   0.24755   1.000
    O253    O    0.49999   0.04004   0.24763   1.000
    O254    O    0.00000   0.08928   0.30081   1.000
    O255    O    0.50000   0.58942   0.30104   1.000
    O256    O    0.00000   0.58892   0.30090   1.000
    O257    O    0.50000   0.08938   0.30148   1.000
    O258    O    0.00001   0.21694   0.25226   1.000
    O259    O    0.00002   0.71645   0.25238   1.000
    O260    O    0.50000   0.21700   0.25283   1.000
    O261    O    0.49999   0.71728   0.25318   1.000
    O262    O    0.00000   0.18527   0.30398   1.000
    O263    O    0.00000   0.68486   0.30425   1.000
    O264    O    0.50000   0.18536   0.30461   1.000
    O265    O    0.50000   0.68549   0.30469   1.000
    O266    O    0.00000   0.64540   0.35295   1.000
    O267    O    0.00002   0.60630   0.38952   1.000
    O268    O    0.00000   0.14573   0.35299   1.000
    O269    O    0.00001   0.10658   0.38940   1.000
    O270    O    0.50000   0.64583   0.35345   1.000
    O271    O    0.49999   0.60658   0.38967   1.000
    O272    O    0.49999   0.14584   0.35364   1.000
    O273    O    0.50000   0.10669   0.39010   1.000
    O274    O    0.99999   0.20342   0.40524   1.000
    O275    O    0.99999   0.70313   0.40553   1.000
    O276    O    0.50000   0.70350   0.40593   1.000
    O277    O    0.49999   0.20356   0.40587   1.000
    O278    O    0.00000   0.24997   0.49961   1.000
    O279    O    0.00000   0.74978   0.49980   1.000
    O280    O    0.49999   0.25019   0.50017   1.000
    O281    O    0.49999   0.74999   0.50037   1.000
    O282    O    0.00001   0.29647   0.59404   1.000
    O283    O    0.00002   0.79641   0.59409   1.000
    O284    O    0.50000   0.29684   0.59445   1.000
    O285    O    0.49999   0.79655   0.59454   1.000
    O286    O    0.99999   0.89328   0.60985   1.000
    O287    O    0.49999   0.39367   0.61002   1.000
    O288    O    0.00001   0.39339   0.61028   1.000
    O289    O    0.50000   0.89339   0.61053   1.000
    O290    O    0.00001   0.85413   0.64632   1.000
    O291    O    0.00001   0.81461   0.69536   1.000
    O292    O    0.00000   0.35414   0.64649   1.000
    O293    O    0.00000   0.31447   0.69528   1.000
    O294    O    0.50000   0.85424   0.64678   1.000
    O295    O    0.50000   0.81470   0.69579   1.000
    O296    O    0.50000   0.35457   0.64658   1.000
    O297    O    0.50000   0.31511   0.69572   1.000
    O298    O    0.00000   0.91059   0.69849   1.000
    O299    O    0.50000   0.41104   0.69864   1.000
    O300    O    0.00000   0.41054   0.69890   1.000
    O301    O    0.50000   0.91069   0.69915   1.000
    O302    O    0.00000   0.28268   0.74680   1.000
    O303    O    0.00000   0.33285   0.79437   1.000
    O304    O    0.99999   0.78297   0.74713   1.000
    O305    O    0.99999   0.83319   0.79445   1.000
    O306    O    0.49999   0.28352   0.74759   1.000
    O307    O    0.50000   0.33375   0.79481   1.000
    O308    O    0.50000   0.78303   0.74772   1.000
    O309    O    0.50000   0.83325   0.79507   1.000
    O310    O    0.00002   0.95993   0.75234   1.000
    O311    O    0.00001   0.92761   0.79723   1.000
    O312    O    0.50001   0.46041   0.75210   1.000
    O313    O    0.50000   0.42813   0.79735   1.000
    O314    O    0.00000   0.45983   0.75303   1.000
    O315    O    0.00000   0.42737   0.79766   1.000
    O316    O    0.50000   0.96002   0.75302   1.000
    O317    O    0.50000   0.92767   0.79788   1.000
    O318    O    0.99999   0.88972   0.84416   1.000
    O319    O    1.00000   0.85428   0.88281   1.000
    O320    O    0.00000   0.38934   0.84433   1.000
    O321    O    0.00000   0.35380   0.88276   1.000
    O322    O    0.50000   0.39031   0.84438   1.000
    O323    O    0.50001   0.35492   0.88316   1.000
    O324    O    0.50000   0.88977   0.84479   1.000
    O325    O    0.50000   0.85434   0.88344   1.000
    O326    O    0.99999   0.96042   0.92255   1.000
    O327    O    0.49999   0.46111   0.92273   1.000
    O328    O    0.63612   0.56211   0.93740   1.000
    O329    O    0.55080   0.52439   0.96609   1.000
    O330    O    0.86401   0.06185   0.93735   1.000
    O331    O    0.94921   0.02380   0.96597   1.000
    O332    O    0.13599   0.06185   0.93735   1.000
    O333    O    0.05079   0.02380   0.96597   1.000
    O334    O    0.36389   0.56212   0.93741   1.000
    O335    O    0.44920   0.52439   0.96610   1.000
    O336    O    0.36411   0.06178   0.93763   1.000
    O337    O    0.63589   0.06178   0.93763   1.000
    O338    O    0.13579   0.56158   0.93775   1.000
    O339    O    0.86421   0.56158   0.93778   1.000
    O340    O    0.78975   0.09346   0.94765   1.000
    O341    O    0.21025   0.09346   0.94765   1.000
    O342    O    0.71051   0.59357   0.94778   1.000
    O343    O    0.28950   0.59357   0.94782   1.000
    O344    O    0.28990   0.09343   0.94775   1.000
    O345    O    0.71010   0.09343   0.94775   1.000
    O346    O    0.20985   0.59342   0.94793   1.000
    O347    O    0.79015   0.59342   0.94792   1.000
    O348    O    0.25016   0.14609   0.96450   1.000
    O349    O    0.74984   0.14609   0.96450   1.000
    O350    O    0.75040   0.64615   0.96470   1.000
    O351    O    0.24960   0.64615   0.96473   1.000
    O352    O    0.29074   0.19894   0.98208   1.000
    O353    O    0.20974   0.19900   0.98220   1.000
    O354    O    0.70926   0.19894   0.98207   1.000
    O355    O    0.79026   0.19900   0.98220   1.000
    O356    O    0.29012   0.69901   0.98236   1.000
    O357    O    0.20912   0.69907   0.98249   1.000
    O358    O    0.70988   0.69901   0.98235   1.000
    O359    O    0.79088   0.69907   0.98249   1.000
    O360    O    0.63665   0.20372   0.98307   1.000
    O361    O    0.36335   0.20372   0.98309   1.000
    O362    O    0.63727   0.70380   0.98340   1.000
    O363    O    0.36273   0.70380   0.98342   1.000
    O364    O    0.13714   0.20389   0.98345   1.000
    O365    O    0.86286   0.20389   0.98346   1.000
    O366    O    0.13652   0.70396   0.98378   1.000
    O367    O    0.86349   0.70396   0.98379   1.000
loop_
    _geom_bond_atom_site_label_1
    _geom_bond_atom_site_label_2
    _geom_bond_distance
    _geom_bond_site_symmetry_2
    _ccdc_geom_bond_type
    C1     O172      1.07302  1_455   S
    C162   O172      1.07302      .   S
    C1     O173      1.07308      .   S
    C148   O173      1.07308      .   S
    C1     O174      1.09537      .   S
    C169   O174      1.09537      .   S
    C1     O175      1.09096  1_554   S
    C164   O175      1.09096      .   S
    C1     O176      1.07654  1_554   S
    C153   O176      1.07654      .   S
    C1     O177      1.07649  1_454   S
    C159   O177      1.07649      .   S
    C2     O178      1.07500      .   S
    C151   O178      1.07500      .   S
    C2     O179      1.07500      .   S
    C161   O179      1.07500      .   S
    C2     O180      1.09386  1_565   S
    C170   O180      1.09386      .   S
    C2     O181      1.09289  1_554   S
    C167   O181      1.09289      .   S
    C2     O182      1.07437  1_564   S
    C156   O182      1.07437      .   S
    C2     O183      1.07440  1_564   S
    C154   O183      1.07440      .   S
    C58    O184      0.54546      .   S
    C6     O184      0.54546      .   S
    C58    O185      0.70409      .   S
    C90    O185      0.70409      .   S
    C58    O186      0.69516  1_554   S
    C66    O186      0.69516      .   S
    C80    O187      0.54574      .   S
    C16    O187      0.54574      .   S
    C80    O188      0.70410      .   S
    C88    O188      0.70410      .   S
    C80    O189      0.69516  1_554   S
    C72    O189      0.69516      .   S
    C56    O190      0.54542      .   S
    C4     O190      0.54542      .   S
    C56    O191      0.70416      .   S
    C88    O191      0.70416      .   S
    C56    O192      0.69506  1_554   S
    C64    O192      0.69506      .   S
    C82    O193      0.54542      .   S
    C18    O193      0.54542      .   S
    C82    O194      0.70416      .   S
    C90    O194      0.70416      .   S
    C82    O195      0.69504  1_554   S
    C74    O195      0.69504      .   S
    C59    O196      0.54543      .   S
    C7     O196      0.54543      .   S
    C59    O197      0.70409      .   S
    C91    O197      0.70409      .   S
    C59    O198      0.69504      .   S
    C67    O198      0.69504  1_556   S
    C81    O199      0.54543      .   S
    C17    O199      0.54543      .   S
    C81    O200      0.70409      .   S
    C89    O200      0.70409      .   S
    C81    O201      0.69505      .   S
    C73    O201      0.69505  1_556   S
    C57    O202      0.54543      .   S
    C5     O202      0.54543      .   S
    C57    O203      0.70414      .   S
    C89    O203      0.70414      .   S
    C57    O204      0.69517      .   S
    C65    O204      0.69517  1_556   S
    C83    O205      0.54543      .   S
    C19    O205      0.54543      .   S
    C83    O206      0.70414      .   S
    C91    O206      0.70414      .   S
    C83    O207      0.69516      .   S
    C75    O207      0.69516  1_556   S
    C88    O208      0.73588      .   S
    C84    O208      0.73588      .   S
    C90    O209      0.73589      .   S
    C86    O209      0.73589      .   S
    C89    O210      0.73587      .   S
    C85    O210      0.73587      .   S
    C91    O211      0.73586      .   S
    C87    O211      0.73586      .   S
    C84    O212      0.69370      .   S
    C76    O212      0.69370      .   S
    C84    O213      0.69349      .   S
    C52    O213      0.69349      .   S
    C86    O214      0.69370      .   S
    C54    O214      0.69370      .   S
    C86    O215      0.69350      .   S
    C78    O215      0.69350      .   S
    C85    O216      0.69355      .   S
    C53    O216      0.69355      .   S
    C85    O217      0.69361      .   S
    C77    O217      0.69361      .   S
    C87    O218      0.69355      .   S
    C79    O218      0.69355      .   S
    C87    O219      0.69362      .   S
    C55    O219      0.69362      .   S
    C54    O220      0.59023      .   S
    C150   O220      0.59023      .   S
    C76    O221      0.59022      .   S
    C160   O221      0.59022      .   S
    C53    O222      0.59021      .   S
    C149   O222      0.59021      .   S
    C79    O223      0.59021      .   S
    C163   O223      0.59021      .   S
    C78    O224      0.59024      .   S
    C162   O224      0.59024      .   S
    C52    O225      0.59024      .   S
    C148   O225      0.59024      .   S
    C55    O226      0.59024      .   S
    C151   O226      0.59024      .   S
    C77    O227      0.59024      .   S
    C161   O227      0.59024      .   S
    C150   O228      1.07659      .   S
    C3     O228      1.07659  1_556   S
    C160   O229      1.07667      .   S
    C3     O229      1.07667  1_556   S
    C149   O230      1.07468      .   S
    C0     O230      1.07468  1_546   S
    C163   O231      1.07475      .   S
    C0     O231      1.07475  1_446   S
    C48    O232      0.54423  1_455   S
    C144   O232      0.54423      .   S
    C49    O233      0.54423  1_455   S
    C145   O233      0.54423      .   S
    C50    O234      0.54424      .   S
    C146   O234      0.54424      .   S
    C51    O235      0.54424      .   S
    C147   O235      0.54424      .   S
    C168   O236      0.67240      .   S
    C144   O236      0.67240  1_655   S
    C168   O237      0.67329      .   S
    C124   O237      0.67329  1_655   S
    C168   O238      1.09301      .   S
    C0     O238      1.09301  1_556   S
    C171   O239      0.67243      .   S
    C147   O239      0.67243      .   S
    C171   O240      0.67331      .   S
    C127   O240      0.67331      .   S
    C171   O241      1.09103      .   S
    C3     O241      1.09103  1_556   S
    C169   O242      0.67242  1_455   S
    C145   O242      0.67242      .   S
    C169   O243      0.67328  1_455   S
    C125   O243      0.67328      .   S
    C170   O244      0.67245      .   S
    C146   O244      0.67245      .   S
    C170   O245      0.67331      .   S
    C126   O245      0.67331      .   S
    C144   O246      0.69347  1_655   S
    C140   O246      0.69347      .   S
    C145   O247      0.69351  1_655   S
    C141   O247      0.69351      .   S
    C146   O248      0.69347      .   S
    C142   O248      0.69347      .   S
    C147   O249      0.69343      .   S
    C143   O249      0.69343      .   S
    C39    O250      0.54498      .   S
    C127   O250      0.54498      .   S
    C36    O251      0.54500  1_455   S
    C124   O251      0.54500      .   S
    C37    O252      0.54487  1_455   S
    C125   O252      0.54487      .   S
    C38    O253      0.54501      .   S
    C126   O253      0.54501      .   S
    C124   O254      0.69393  1_655   S
    C128   O254      0.69393      .   S
    C127   O255      0.69389      .   S
    C131   O255      0.69389      .   S
    C125   O256      0.69001  1_655   S
    C129   O256      0.69001      .   S
    C126   O257      0.69398      .   S
    C130   O257      0.69398      .   S
    C44    O258      0.54427      .   S
    C140   O258      0.54427      .   S
    C45    O259      0.54426      .   S
    C141   O259      0.54426      .   S
    C46    O260      0.54425      .   S
    C142   O260      0.54425      .   S
    C47    O261      0.54425      .   S
    C143   O261      0.54425      .   S
    C140   O262      0.70471      .   S
    C132   O262      0.70471  1_655   S
    C141   O263      0.70475      .   S
    C133   O263      0.70475  1_655   S
    C142   O264      0.70477      .   S
    C134   O264      0.70477      .   S
    C143   O265      0.70473      .   S
    C135   O265      0.70473      .   S
    C129   O266      0.70349      .   S
    C133   O266      0.70349  1_655   S
    C129   O267      0.54991      .   S
    C41    O267      0.54991  1_655   S
    C128   O268      0.70503      .   S
    C132   O268      0.70503  1_655   S
    C128   O269      0.54397      .   S
    C40    O269      0.54397      .   S
    C131   O270      0.70501      .   S
    C135   O270      0.70501      .   S
    C131   O271      0.54437      .   S
    C43    O271      0.54437      .   S
    C130   O272      0.70508      .   S
    C134   O272      0.70508      .   S
    C130   O273      0.54437      .   S
    C42    O273      0.54437      .   S
    C132   O274      0.70759      .   S
    C136   O274      0.70759      .   S
    C133   O275      0.70777      .   S
    C137   O275      0.70777  1_455   S
    C135   O276      0.70761      .   S
    C139   O276      0.70761      .   S
    C134   O277      0.70775      .   S
    C138   O277      0.70775      .   S
    C136   O278      0.60975  1_655   S
    C112   O278      0.60975      .   S
    C137   O279      0.60980      .   S
    C113   O279      0.60980  1_655   S
    C138   O280      0.60984      .   S
    C114   O280      0.60984      .   S
    C139   O281      0.60975      .   S
    C115   O281      0.60975      .   S
    C112   O282      0.70760      .   S
    C108   O282      0.70760      .   S
    C113   O283      0.70776  1_655   S
    C109   O283      0.70776      .   S
    C114   O284      0.70776      .   S
    C110   O284      0.70776      .   S
    C115   O285      0.70587      .   S
    C111   O285      0.70587      .   S
    C25    O286      0.54456  1_455   S
    C105   O286      0.54456      .   S
    C26    O287      0.54435      .   S
    C106   O287      0.54435      .   S
    C24    O288      0.54389      .   S
    C104   O288      0.54389      .   S
    C27    O289      0.54433      .   S
    C107   O289      0.54433      .   S
    C109   O290      0.70507      .   S
    C105   O290      0.70507  1_655   S
    C109   O291      0.70477      .   S
    C117   O291      0.70477  1_655   S
    C108   O292      0.70514      .   S
    C104   O292      0.70514      .   S
    C108   O293      0.70474      .   S
    C116   O293      0.70474      .   S
    C111   O294      0.70435      .   S
    C107   O294      0.70435      .   S
    C111   O295      0.70719      .   S
    C119   O295      0.70719      .   S
    C110   O296      0.70506      .   S
    C106   O296      0.70506      .   S
    C110   O297      0.70477      .   S
    C118   O297      0.70477      .   S
    C105   O298      0.69399  1_655   S
    C101   O298      0.69399      .   S
    C106   O299      0.69402      .   S
    C102   O299      0.69402      .   S
    C104   O300      0.69425      .   S
    C100   O300      0.69425      .   S
    C107   O301      0.69393      .   S
    C103   O301      0.69393      .   S
    C116   O302      0.54426      .   S
    C28    O302      0.54426      .   S
    C116   O303      0.69342      .   S
    C120   O303      0.69342      .   S
    C117   O304      0.54425      .   S
    C29    O304      0.54425  1_455   S
    C117   O305      0.69347      .   S
    C121   O305      0.69347  1_455   S
    C118   O306      0.54425      .   S
    C30    O306      0.54425      .   S
    C118   O307      0.69349      .   S
    C122   O307      0.69349      .   S
    C119   O308      0.54425      .   S
    C31    O308      0.54425      .   S
    C119   O309      0.69347      .   S
    C123   O309      0.69347      .   S
    C101   O310      0.54499      .   S
    C21    O310      0.54499  1_655   S
    C101   O311      0.67331      .   S
    C165   O311      0.67331  1_655   S
    C102   O312      0.54591      .   S
    C22    O312      0.54591      .   S
    C102   O313      0.67279      .   S
    C166   O313      0.67279      .   S
    C100   O314      0.54498      .   S
    C20    O314      0.54498      .   S
    C100   O315      0.67332      .   S
    C164   O315      0.67332      .   S
    C103   O316      0.54503      .   S
    C23    O316      0.54503      .   S
    C103   O317      0.67328      .   S
    C167   O317      0.67328      .   S
    C121   O318      0.67245  1_455   S
    C165   O318      0.67245      .   S
    C121   O319      0.54424  1_455   S
    C33    O319      0.54424      .   S
    C120   O320      0.67243      .   S
    C164   O320      0.67243      .   S
    C120   O321      0.54425      .   S
    C32    O321      0.54425      .   S
    C122   O322      0.67256      .   S
    C166   O322      0.67256      .   S
    C122   O323      0.54424      .   S
    C34    O323      0.54424      .   S
    C123   O324      0.67242      .   S
    C167   O324      0.67242      .   S
    C123   O325      0.54422      .   S
    C35    O325      0.54422      .   S
    C165   O326      1.09374      .   S
    C0     O326      1.09374  1_445   S
    C166   O327      1.09563      .   S
    C3     O327      1.09563      .   S
    C155   O328      0.59024      .   S
    C63    O328      0.59024      .   S
    C155   O329      1.07296      .   S
    C3     O329      1.07296      .   S
    C158   O330      0.59024      .   S
    C70    O330      0.59024      .   S
    C158   O331      1.07474      .   S
    C0     O331      1.07474  1_455   S
    C152   O332      0.59023      .   S
    C60    O332      0.59023      .   S
    C152   O333      1.07471      .   S
    C0     O333      1.07471      .   S
    C157   O334      0.59024      .   S
    C69    O334      0.59024      .   S
    C157   O335      1.07293      .   S
    C3     O335      1.07293      .   S
    C156   O336      0.59021      .   S
    C68    O336      0.59021      .   S
    C154   O337      0.59021      .   S
    C62    O337      0.59021      .   S
    C153   O338      0.59023      .   S
    C61    O338      0.59023      .   S
    C159   O339      0.59023      .   S
    C71    O339      0.59023      .   S
    C70    O340      0.69361      .   S
    C94    O340      0.69361      .   S
    C60    O341      0.69362      .   S
    C92    O341      0.69362      .   S
    C63    O342      0.69351      .   S
    C95    O342      0.69351      .   S
    C69    O343      0.69350      .   S
    C93    O343      0.69350      .   S
    C68    O344      0.69354      .   S
    C92    O344      0.69354      .   S
    C62    O345      0.69355      .   S
    C94    O345      0.69355      .   S
    C61    O346      0.69369      .   S
    C93    O346      0.69369      .   S
    C71    O347      0.69374      .   S
    C95    O347      0.69374      .   S
    C92    O348      0.73587      .   S
    C96    O348      0.73587      .   S
    C94    O349      0.73587      .   S
    C98    O349      0.73587      .   S
    C95    O350      0.73588      .   S
    C99    O350      0.73588      .   S
    C93    O351      0.73593      .   S
    C97    O351      0.73593      .   S
    C96    O352      0.70414      .   S
    C72    O352      0.70414      .   S
    C96    O353      0.70409      .   S
    C64    O353      0.70409      .   S
    C98    O354      0.70414      .   S
    C66    O354      0.70414      .   S
    C98    O355      0.70409      .   S
    C74    O355      0.70409      .   S
    C97    O356      0.70414      .   S
    C73    O356      0.70414      .   S
    C97    O357      0.70408      .   S
    C65    O357      0.70408      .   S
    C99    O358      0.70415      .   S
    C67    O358      0.70415      .   S
    C99    O359      0.70409      .   S
    C75    O359      0.70409      .   S
    C10    O360      0.54543      .   S
    C66    O360      0.54543      .   S
    C12    O361      0.54542      .   S
    C72    O361      0.54542      .   S
    C11    O362      0.54542      .   S
    C67    O362      0.54542      .   S
    C13    O363      0.54542      .   S
    C73    O363      0.54542      .   S
    C8     O364      0.54543      .   S
    C64    O364      0.54543      .   S
    C14    O365      0.54543      .   S
    C74    O365      0.54543      .   S
    C9     O366      0.54544      .   S
    C65    O366      0.54544      .   S
    C15    O367      0.54543      .   S
    C75    O367      0.54543      .   S
