# CIF file generated by openbabel 2.4.90, see http://openbabel.sf.net
data_I
_chemical_name_common 'VESTA_phase_1'
_cell_length_a 17.224
_cell_length_b 17.234
_cell_length_c 17.292
_cell_angle_alpha 90.548
_cell_angle_beta 90
_cell_angle_gamma 90
_space_group_name_H-M_alt 'P 1'
_space_group_name_Hall 'P 1'
loop_
    _symmetry_equiv_pos_as_xyz
    x,y,z
loop_
    _atom_site_label
    _atom_site_type_symbol
    _atom_site_fract_x
    _atom_site_fract_y
    _atom_site_fract_z
    _atom_site_occupancy
    Zn0     Zn   0.43336   0.10732   0.08427   1.000
    Zn1     Zn   0.58569   0.17240   0.00000   1.000
    Zn2     Zn   0.42610   0.26481   0.00000   1.000
    Zn3     Zn   0.51901   0.25859   0.14906   1.000
    Zn4     Zn   0.43781   0.61697   0.42620   1.000
    Zn5     Zn   0.35675   0.76915   0.35553   1.000
    Zn6     Zn   0.79340   0.32925   0.50745   1.000
    Zn7     Zn   0.44750   0.77733   0.51722   1.000
    Zn8     Zn   0.94218   0.90955   0.93097   1.000
    Zn9     Zn   0.07866   0.84503   0.00340   1.000
    Zn10    Zn   0.93597   0.75266   0.01025   1.000
    Zn11    Zn   0.01339   0.75698   0.86633   1.000
    Zn12    Zn   0.94591   0.40032   0.58949   1.000
    Zn13    Zn   0.86426   0.24816   0.65988   1.000
    Zn14    Zn   0.28542   0.68829   0.50810   1.000
    Zn15    Zn   0.95546   0.24011   0.49839   1.000
    H16     H    0.70916   0.99440   0.98121   1.000
    H17     H    0.75120   0.75455   0.11066   1.000
    H18     H    0.67883   0.68768   0.20395   1.000
    H19     H    0.55904   0.72057   0.25886   1.000
    H20     H    0.48043   0.82847   0.23398   1.000
    H21     H    0.50025   0.92892   0.14560   1.000
    H22     H    0.67187   0.22722   0.78715   1.000
    H23     H    0.57428   0.33746   0.54578   1.000
    H24     H    0.45323   0.38706   0.50630   1.000
    H25     H    0.33741   0.39488   0.57616   1.000
    H26     H    0.31283   0.35934   0.70398   1.000
    H27     H    0.39880   0.30747   0.79568   1.000
    H28     H    0.71424   0.27999   0.27550   1.000
    H29     H    0.94936   0.12509   0.31716   1.000
    H30     H    0.00000   0.03222   0.24250   1.000
    H31     H    0.98771   0.00000   0.11918   1.000
    H32     H    0.88053   0.01332   0.04019   1.000
    H33     H    0.78024   0.10275   0.06213   1.000
    H34     H    0.40584   0.00000   0.27658   1.000
    H35     H    0.56402   0.95505   0.50746   1.000
    H36     H    0.65915   0.00933   0.57303   1.000
    H37     H    0.70848   0.13215   0.54439   1.000
    H38     H    0.67561   0.21403   0.44224   1.000
    H39     H    0.58325   0.19526   0.34430   1.000
    H40     H    0.46139   0.48622   0.23619   1.000
    H41     H    0.37723   0.47154   0.98057   1.000
    H42     H    0.32435   0.56188   0.89431   1.000
    H43     H    0.28857   0.69067   0.91730   1.000
    H44     H    0.29597   0.76307   0.00000   1.000
    H45     H    0.34633   0.72565   0.13759   1.000
    H46     H    0.66476   0.52748   0.48223   1.000
    H47     H    0.88061   0.59608   0.65452   1.000
    H48     H    0.90459   0.69927   0.74080   1.000
    H49     H    0.82803   0.80876   0.76678   1.000
    H50     H    0.70634   0.84072   0.71612   1.000
    H51     H    0.63051   0.77221   0.62549   1.000
    H52     H    0.20027   0.02293   0.03417   1.000
    H53     H    0.24154   0.26252   0.90438   1.000
    H54     H    0.16932   0.32923   0.81085   1.000
    H55     H    0.04967   0.29623   0.75573   1.000
    H56     H    0.98775   0.18829   0.78062   1.000
    H57     H    0.00000   0.08814   0.86920   1.000
    H58     H    0.16434   0.79039   0.22820   1.000
    H59     H    0.06650   0.68035   0.46962   1.000
    H60     H    0.96212   0.63079   0.50891   1.000
    H61     H    0.84638   0.62289   0.43902   1.000
    H62     H    0.82193   0.65836   0.31114   1.000
    H63     H    0.90801   0.71022   0.21952   1.000
    H64     H    0.20692   0.73688   0.74097   1.000
    H65     H    0.44067   0.89328   0.69748   1.000
    H66     H    0.50783   0.98656   0.77145   1.000
    H67     H    0.47829   0.01701   0.89528   1.000
    H68     H    0.37374   0.00000   0.97514   1.000
    H69     H    0.27357   0.91468   0.95388   1.000
    H70     H    0.91345   0.01590   0.73914   1.000
    H71     H    0.05480   0.06221   0.50800   1.000
    H72     H    0.15160   0.00000   0.44251   1.000
    H73     H    0.20109   0.88518   0.47122   1.000
    H74     H    0.16839   0.80334   0.57346   1.000
    H75     H    0.07602   0.82204   0.67140   1.000
    H76     H    0.97136   0.52955   0.77951   1.000
    H77     H    0.88752   0.54624   0.03470   1.000
    H78     H    0.83242   0.45714   0.12091   1.000
    H79     H    0.79482   0.32876   0.09805   1.000
    H80     H    0.80202   0.25582   0.98375   1.000
    H81     H    0.85207   0.29219   0.87822   1.000
    H82     H    0.15613   0.49017   0.53331   1.000
    H83     H    0.37194   0.42114   0.36109   1.000
    H84     H    0.39573   0.31781   0.27493   1.000
    H85     H    0.31900   0.20845   0.24901   1.000
    H86     H    0.19725   0.17670   0.29968   1.000
    H87     H    0.12158   0.24541   0.39030   1.000
    C88     C    0.56141   0.00867   0.03273   1.000
    C89     C    0.61533   0.96112   0.04562   1.000
    C90     C    0.68749   0.95394   0.00809   1.000
    C91     C    0.72661   0.88705   0.03301   1.000
    C92     C    0.67831   0.84926   0.08870   1.000
    C93     C    0.60760   0.89727   0.09759   1.000
    C94     C    0.69589   0.78059   0.12725   1.000
    C95     C    0.65271   0.74124   0.18280   1.000
    C96     C    0.58104   0.76074   0.21555   1.000
    C97     C    0.53384   0.82469   0.20028   1.000
    C98     C    0.54549   0.88473   0.14786   1.000
    C99     C    0.80432   0.86483   0.00585   1.000
    C100    C    0.53201   0.25066   0.87054   1.000
    C101    C    0.54961   0.26631   0.78916   1.000
    C102    C    0.62293   0.25195   0.75650   1.000
    C103    C    0.62467   0.27583   0.67906   1.000
    C104    C    0.54973   0.30612   0.66010   1.000
    C105    C    0.50122   0.29907   0.73051   1.000
    C106    C    0.52792   0.33645   0.58875   1.000
    C107    C    0.45599   0.36564   0.56555   1.000
    C108    C    0.38685   0.37094   0.60750   1.000
    C109    C    0.37227   0.34983   0.68395   1.000
    C110    C    0.42295   0.31869   0.73855   1.000
    C111    C    0.69541   0.27091   0.63220   1.000
    C112    C    0.68307   0.21704   0.12701   1.000
    C113    C    0.74753   0.20087   0.17980   1.000
    C114    C    0.75424   0.23680   0.25283   1.000
    C115    C    0.81984   0.20897   0.29206   1.000
    C116    C    0.85738   0.15294   0.24293   1.000
    C117    C    0.81071   0.14731   0.17127   1.000
    C118    C    0.92475   0.11151   0.26053   1.000
    C119    C    0.96427   0.05622   0.21600   1.000
    C120    C    0.94636   0.02683   0.14253   1.000
    C121    C    0.88360   0.04517   0.09490   1.000
    C122    C    0.82370   0.09837   0.10775   1.000
    C123    C    0.84116   0.23523   0.37014   1.000
    C124    C    0.46920   0.13196   0.24719   1.000
    C125    C    0.48478   0.07851   0.31050   1.000
    C126    C    0.44867   0.00564   0.31632   1.000
    C127    C    0.47810   0.98299   0.38064   1.000
    C128    C    0.53411   0.01348   0.41800   1.000
    C129    C    0.53935   0.08568   0.37274   1.000
    C130    C    0.57774   0.00000   0.48374   1.000
    C131    C    0.63389   0.03716   0.52240   1.000
    C132    C    0.66355   0.11045   0.50518   1.000
    C133    C    0.64359   0.15958   0.44461   1.000
    C134    C    0.58867   0.14863   0.38610   1.000
    C135    C    0.45198   0.90485   0.40104   1.000
    C136    C    0.43737   0.39943   0.09748   1.000
    C137    C    0.42032   0.48111   0.11490   1.000
    C138    C    0.43504   0.51553   0.18753   1.000
    C139    C    0.40973   0.59306   0.18876   1.000
    C140    C    0.41464   0.64200   0.25837   1.000
    C141    C    0.38627   0.53894   0.06649   1.000
    C142    C    0.36567   0.52929   0.00000   1.000
    C143    C    0.33398   0.58314   0.95325   1.000
    C144    C    0.31261   0.66022   0.96701   1.000
    C145    C    0.31773   0.70369   0.00000   1.000
    C146    C    0.34759   0.68166   0.09182   1.000
    C147    C    0.37856   0.61038   0.11413   1.000
    C148    C    0.57410   0.65995   0.52088   1.000
    C149    C    0.65183   0.63768   0.54757   1.000
    C150    C    0.68906   0.56930   0.52284   1.000
    C151    C    0.76205   0.56225   0.55853   1.000
    C152    C    0.77242   0.62783   0.60908   1.000
    C153    C    0.70204   0.67649   0.60158   1.000
    C154    C    0.83615   0.64109   0.65739   1.000
    C155    C    0.85023   0.70264   0.70862   1.000
    C156    C    0.80416   0.76754   0.72466   1.000
    C157    C    0.73159   0.78670   0.69414   1.000
    C158    C    0.68632   0.74633   0.64015   1.000
    C159    C    0.81295   0.49520   0.54500   1.000
    C160    C    0.05321   0.00000   0.98254   1.000
    C161    C    0.10546   0.05613   0.96900   1.000
    C162    C    0.17759   0.06333   0.00000   1.000
    C163    C    0.21679   0.13012   0.98218   1.000
    C164    C    0.16860   0.16784   0.92636   1.000
    C165    C    0.09786   0.11987   0.91748   1.000
    C166    C    0.18625   0.23645   0.88773   1.000
    C167    C    0.14317   0.27571   0.83199   1.000
    C168    C    0.07158   0.25613   0.79916   1.000
    C169    C    0.02435   0.19221   0.81446   1.000
    C170    C    0.03586   0.13230   0.86705   1.000
    C171    C    0.29450   0.15237   0.00000   1.000
    C172    C    0.00000   0.76693   0.14478   1.000
    C173    C    0.04206   0.75134   0.22618   1.000
    C174    C    0.11538   0.76570   0.25886   1.000
    C175    C    0.11706   0.74187   0.33632   1.000
    C176    C    0.04208   0.71163   0.35523   1.000
    C177    C    0.00000   0.71864   0.28481   1.000
    C178    C    0.02019   0.68133   0.42660   1.000
    C179    C    0.96495   0.65216   0.44973   1.000
    C180    C    0.89585   0.64683   0.40772   1.000
    C181    C    0.88135   0.66789   0.33124   1.000
    C182    C    0.93208   0.69901   0.27669   1.000
    C183    C    0.18777   0.74672   0.38320   1.000
    C184    C    0.17647   0.79982   0.88979   1.000
    C185    C    0.24035   0.81636   0.83643   1.000
    C186    C    0.24680   0.78036   0.76338   1.000
    C187    C    0.31198   0.80851   0.72367   1.000
    C188    C    0.34951   0.86484   0.77249   1.000
    C189    C    0.30330   0.87031   0.84444   1.000
    C190    C    0.41646   0.90670   0.75430   1.000
    C191    C    0.45605   0.96222   0.79851   1.000
    C192    C    0.43869   0.99138   0.87220   1.000
    C193    C    0.37645   0.97264   0.92032   1.000
    C194    C    0.31663   0.91924   0.90790   1.000
    C195    C    0.33311   0.78224   0.64551   1.000
    C196    C    0.97852   0.88503   0.76846   1.000
    C197    C    0.99423   0.93863   0.70510   1.000
    C198    C    0.95807   0.00000   0.69940   1.000
    C199    C    0.98575   0.03429   0.63514   1.000
    C200    C    0.02680   0.00000   0.59773   1.000
    C201    C    0.03208   0.93159   0.64290   1.000
    C202    C    0.06859   0.00546   0.53194   1.000
    C203    C    0.12644   0.98011   0.49320   1.000
    C204    C    0.15618   0.90687   0.51045   1.000
    C205    C    0.13632   0.85775   0.57108   1.000
    C206    C    0.08142   0.86867   0.62955   1.000
    C207    C    0.95965   0.11248   0.61471   1.000
    C208    C    0.94822   0.61695   0.91788   1.000
    C209    C    0.93000   0.53549   0.90058   1.000
    C210    C    0.94431   0.50073   0.82809   1.000
    C211    C    0.91754   0.42371   0.82685   1.000
    C212    C    0.92158   0.37450   0.75735   1.000
    C213    C    0.89472   0.47840   0.94902   1.000
    C214    C    0.87503   0.48862   0.01123   1.000
    C215    C    0.84209   0.43550   0.06211   1.000
    C216    C    0.81962   0.35870   0.04848   1.000
    C217    C    0.82453   0.31491   0.98025   1.000
    C218    C    0.85384   0.33629   0.92387   1.000
    C219    C    0.88588   0.40705   0.90145   1.000
    C220    C    0.06538   0.35763   0.49475   1.000
    C221    C    0.14311   0.37991   0.46800   1.000
    C222    C    0.18039   0.44831   0.49273   1.000
    C223    C    0.25340   0.45528   0.45703   1.000
    C224    C    0.26370   0.38962   0.40650   1.000
    C225    C    0.19328   0.34102   0.41410   1.000
    C226    C    0.32741   0.37620   0.35828   1.000
    C227    C    0.34139   0.31455   0.30714   1.000
    C228    C    0.29521   0.24972   0.29112   1.000
    C229    C    0.22260   0.23069   0.32163   1.000
    C230    C    0.17743   0.27117   0.37559   1.000
    C231    C    0.30442   0.52229   0.47004   1.000
    O232    O    0.49192   0.20017   0.05491   1.000
    O233    O    0.49908   0.01362   0.07388   1.000
    O234    O    0.57937   0.05762   0.99567   1.000
    O235    O    0.84050   0.91588   0.98148   1.000
    O236    O    0.83075   0.79748   0.02295   1.000
    O237    O    0.58732   0.22051   0.91024   1.000
    O238    O    0.46445   0.26806   0.89696   1.000
    O239    O    0.75111   0.23040   0.66004   1.000
    O240    O    0.69807   0.30623   0.56690   1.000
    O241    O    0.67968   0.17988   0.06192   1.000
    O242    O    0.63379   0.26850   0.14879   1.000
    O243    O    0.90488   0.21076   0.39980   1.000
    O244    O    0.79305   0.28171   0.40372   1.000
    O245    O    0.50772   0.19594   0.24365   1.000
    O246    O    0.41692   0.11191   0.19771   1.000
    O247    O    0.47495   0.87538   0.46496   1.000
    O248    O    0.40695   0.87105   0.35179   1.000
    O249    O    0.46800   0.35994   0.15255   1.000
    O250    O    0.42061   0.37229   0.03006   1.000
    O251    O    0.45805   0.61734   0.31321   1.000
    O252    O    0.37625   0.70619   0.26100   1.000
    O253    O    0.38079   0.71286   0.45110   1.000
    O254    O    0.54655   0.72606   0.54216   1.000
    O255    O    0.53889   0.61044   0.47731   1.000
    O256    O    0.87810   0.49215   0.58205   1.000
    O257    O    0.78918   0.44339   0.49737   1.000
    O258    O    0.00000   0.81668   0.95953   1.000
    O259    O    0.00000   0.00000   0.94140   1.000
    O260    O    0.07226   0.95975   0.01966   1.000
    O261    O    0.33165   0.10137   0.03394   1.000
    O262    O    0.32101   0.21962   0.99212   1.000
    O263    O    0.07988   0.79703   0.10512   1.000
    O264    O    0.97370   0.74954   0.11832   1.000
    O265    O    0.24369   0.78687   0.35522   1.000
    O266    O    0.19020   0.71172   0.44866   1.000
    O267    O    0.17261   0.83784   0.95432   1.000
    O268    O    0.12798   0.74703   0.86918   1.000
    O269    O    0.39677   0.80675   0.61572   1.000
    O270    O    0.28499   0.73574   0.61199   1.000
    O271    O    0.00000   0.82105   0.77221   1.000
    O272    O    0.92592   0.90521   0.81756   1.000
    O273    O    0.98278   0.14207   0.55090   1.000
    O274    O    0.91445   0.14626   0.66382   1.000
    O275    O    0.97972   0.65547   0.86259   1.000
    O276    O    0.93165   0.64483   0.98504   1.000
    O277    O    0.96610   0.39762   0.70270   1.000
    O278    O    0.88125   0.31152   0.75457   1.000
    O279    O    0.88871   0.30453   0.56448   1.000
    O280    O    0.03778   0.29153   0.47340   1.000
    O281    O    0.03019   0.40715   0.53832   1.000
    O282    O    0.36963   0.52525   0.43360   1.000
    O283    O    0.28063   0.57418   0.51808   1.000
loop_
    _geom_bond_atom_site_label_1
    _geom_bond_atom_site_label_2
    _geom_bond_distance
    _geom_bond_site_symmetry_2
    _ccdc_geom_bond_type
    Zn1    O232      1.93154      .   S
    Zn1    O241      1.94454      .   S
    Zn1    O237      1.76691  1_554   S
    Zn1    O234      1.98185  1_554   S
    C171   O261      1.23932      .   S
    C171   C163      1.42517  1_554   S
    C171   O262      1.25437  1_554   S
    C162   H52       0.99719      .   S
    C162   C161      1.35826  1_554   S
    C162   C163      1.37217  1_554   S
    C145   H44       1.08989      .   S
    C145   C146      1.71492      .   S
    C145   C144      0.94139  1_554   S
    C142   C141      1.21315      .   S
    C142   C143      1.35178  1_554   S
    C142   H41       1.06617  1_554   S
    Zn2    O250      1.92135      .   S
    Zn2    O232      1.85688      .   S
    Zn2    O238      1.90160  1_554   S
    Zn2    O262      1.97465  1_554   S
    Zn9    O260      1.99731      .   S
    Zn9    O263      1.95104      .   S
    Zn9    O267      1.83093  1_554   S
    Zn9    O258      1.62570  1_554   S
    C99    O236      1.28398      .   S
    C99    C91       1.46823      .   S
    C99    O235      1.16063  1_554   S
    C90    C91       1.40633      .   S
    C90    C89       1.40698      .   S
    C90    H16       0.92082  1_554   S
    Zn10   O236      1.98146      .   S
    Zn10   O264      1.97975      .   S
    Zn10   O258      1.79478  1_654   S
    Zn10   O276      1.90619  1_554   S
    C214   H77       1.09046      .   S
    C214   C215      1.39632      .   S
    C214   C213      1.14001  1_554   S
    O260   C160      1.00468  1_564   S
    O250   C136      1.28484      .   S
    C88    C89       1.25986  1_545   S
    C88    O233      1.29028      .   S
    C88    O234      1.10833  1_554   S
    C91    C92       1.43370      .   S
    O261   Zn0       1.95834      .   S
    H32    C121      1.09047      .   S
    C89    C93       1.43357      .   S
    C216   C215      1.39679      .   S
    C216   H79       1.09174      .   S
    C216   C217      1.39704  1_554   S
    O241   C112      1.29093      .   S
    C215   H78       1.09246      .   S
    H33    C122      1.09061      .   S
    C141   C147      1.48072      .   S
    C141   C137      1.43321      .   S
    O233   Zn0       1.97879      .   S
    Zn0    O246      1.98275      .   S
    C92    C93       1.47959      .   S
    C92    C94       1.39709      .   S
    C146   C147      1.39703      .   S
    C146   H45       1.09096      .   S
    C121   C122      1.39656      .   S
    C121   C120      1.39709      .   S
    C136   C137      1.46640      .   S
    C136   O249      1.28873      .   S
    C93    C98       1.39648      .   S
    O263   C172      1.62459      .   S
    C122   C117      1.39648      .   S
    H17    C94       1.09044      .   S
    C147   C139      1.43186      .   S
    C137   C138      1.40686      .   S
    O264   C172      0.70828  1_655   S
    H31    C120      0.93835      .   S
    C112   O242      1.28156      .   S
    C112   C113      1.46571      .   S
    C94    C95       1.39579      .   S
    C120   C119      1.39761      .   S
    C172   C173      1.60798      .   S
    H21    C98       1.09051      .   S
    C98    C97       1.39669      .   S
    O242   Zn3       1.98444      .   S
    Zn3    O249      1.95549      .   S
    Zn3    O245      1.97811      .   S
    C117   C113      1.43371      .   S
    C117   C116      1.47948      .   S
    C113   C114      1.40587      .   S
    C95    H18       1.09288      .   S
    C95    C96       1.39781      .   S
    C138   C139      1.40536      .   S
    C138   H40       1.08505      .   S
    C139   C140      1.46563      .   S
    O246   C124      1.28705      .   S
    C97    C96       1.39666      .   S
    C97    H20       1.09061      .   S
    C96    H19       1.09255      .   S
    C119   H30       0.87364  1_655   S
    C119   C118      1.39665      .   S
    H63    C182      1.09093      .   S
    C173   C174      1.40446      .   S
    C173   C177      1.37162      .   S
    H58    C174      1.08511      .   S
    C116   C118      1.39733      .   S
    C116   C115      1.43405      .   S
    O245   C124      1.28883      .   S
    C124   C125      1.46235      .   S
    H85    C228      1.09269      .   S
    C114   H28       1.08484      .   S
    C114   C115      1.40478      .   S
    C140   O252      1.28929      .   S
    C140   O251      1.28319      .   S
    C174   C175      1.40503      .   S
    C118   H29       1.09041      .   S
    O252   Zn5       1.98195      .   S
    H84    C227      1.09092      .   S
    H34    C126      1.01218      .   S
    C182   C177      1.22545  1_655   S
    C182   C181      1.39669      .   S
    C177   C176      1.42324      .   S
    C228   C227      1.39711      .   S
    C228   C229      1.39755      .   S
    C115   C123      1.46661      .   S
    H86    C229      1.09256      .   S
    C227   C226      1.39664      .   S
    C125   C126      1.40595      .   S
    C125   C129      1.43332      .   S
    H62    C181      1.09271      .   S
    O251   Zn4       1.98476      .   S
    C126   C127      1.28632  1_545   S
    C229   C230      1.39655      .   S
    C181   C180      1.39725      .   S
    C175   C176      1.43164      .   S
    C175   C183      1.46495      .   S
    H39    C134      1.08994      .   S
    O248   Zn5       1.95908      .   S
    O248   C135      1.28713      .   S
    O265   Zn5       1.97112      .   S
    O265   C183      1.28344      .   S
    C176   C178      1.39649      .   S
    C226   H83       1.09082      .   S
    C226   C224      1.39627      .   S
    C123   O243      1.28447      .   S
    C123   O244      1.28701      .   S
    C129   C134      1.39543      .   S
    C129   C128      1.47898      .   S
    C230   H87       1.09058      .   S
    C230   C225      1.39712      .   S
    C127   C135      1.46612      .   S
    C127   C128      1.27188  1_565   S
    C183   O266      1.28833      .   S
    C134   C133      1.39655      .   S
    O243   Zn15      1.97599      .   S
    C135   O247      1.28340      .   S
    O244   Zn6       1.96480      .   S
    C224   C225      1.48044      .   S
    C224   C223      1.43407      .   S
    C180   H61       1.09236      .   S
    C180   C179      1.39701      .   S
    C225   C221      1.43271      .   S
    C128   C130      1.38425      .   S
    Zn4    O282      1.97437      .   S
    Zn4    O255      1.95623      .   S
    C178   C179      1.14971  1_455   S
    C178   H59       1.09097      .   S
    O282   C231      1.28909      .   S
    H38    C133      1.08954      .   S
    H72    C203      1.03884  1_545   S
    C133   C132      1.39615      .   S
    O266   Zn14      1.97913      .   S
    C179   H60       1.09199      .   S
    O253   Zn14      1.96400      .   S
    O253   Zn7       1.95898      .   S
    C223   C231      1.46689      .   S
    C223   C222      1.40653      .   S
    O247   Zn7       1.98111      .   S
    C221   C222      1.40524      .   S
    C221   C220      1.46883      .   S
    C231   O283      1.28200      .   S
    H73    C204      1.09247      .   S
    O280   C220      1.28514      .   S
    O280   Zn15      1.72920  1_455   S
    O255   C148      1.28496      .   S
    H46    C150      1.08533      .   S
    C130   H35       0.91120  1_545   S
    C130   C131      1.33570      .   S
    C222   H82       1.08533      .   S
    C203   C204      1.39707      .   S
    C203   C202      1.27550  1_565   S
    C220   O281      1.28498      .   S
    O257   Zn6       1.97790      .   S
    O257   C159      1.27627      .   S
    Zn15   O273      1.98246      .   S
    Zn15   O279      1.95857      .   S
    C132   C131      1.39713      .   S
    C132   H37       1.09257      .   S
    H24    C107      1.09337      .   S
    Zn6    O279      1.96388      .   S
    Zn6    O240      1.97947      .   S
    H71    C202      1.09178      .   S
    Zn14   O283      1.97741      .   S
    Zn14   O270      1.96673      .   S
    C204   C205      1.39630      .   S
    Zn7    O254      1.97089      .   S
    Zn7    O269      1.97616      .   S
    C148   O254      1.28478      .   S
    C148   C149      1.46844      .   S
    C131   H36       1.09261      .   S
    C150   C149      1.40459      .   S
    C150   C151      1.40631      .   S
    C202   C200      1.35027      .   S
    O281   Zn12      1.70477  1_455   S
    C159   C151      1.46752      .   S
    C159   O256      1.29350      .   S
    H23    C106      1.09100      .   S
    C149   C153      1.43375      .   S
    O273   C207      1.28337      .   S
    C151   C152      1.43335      .   S
    C107   C106      1.39730      .   S
    C107   C108      1.39705      .   S
    O240   C111      1.28876      .   S
    C205   H74       1.08941      .   S
    C205   C206      1.39575      .   S
    H25    C108      1.09237      .   S
    O256   Zn12      1.97202      .   S
    C106   C104      1.39608      .   S
    Zn12   O277      1.98927      .   S
    C200   C199      1.12260  1_455   S
    C200   C201      1.42335  1_545   S
    C153   C152      1.48039      .   S
    C153   C158      1.39701      .   S
    C108   C109      1.39719      .   S
    C152   C154      1.39696      .   S
    O270   C195      1.28702      .   S
    C207   C199      1.46691      .   S
    C207   O274      1.28718      .   S
    O269   C195      1.28454      .   S
    H51    C158      1.09058      .   S
    C206   C201      1.39524      .   S
    C206   H75       1.09043      .   S
    C111   O239      1.28302      .   S
    C111   C103      1.46520      .   S
    C199   C198      1.35049      .   S
    C158   C157      1.39681      .   S
    C201   C197      1.26254  1_455   S
    C195   C187      1.46711      .   S
    H47    C154      1.09077      .   S
    C154   C155      1.39667      .   S
    Zn13   O239      1.97281      .   S
    Zn13   O274      1.95907      .   S
    Zn13   O278      1.98114      .   S
    C104   C103      1.43162      .   S
    C104   C105      1.48258      .   S
    C103   C102      1.40499      .   S
    C109   H26       1.09269      .   S
    C109   C110      1.39680      .   S
    C157   H50       1.09257      .   S
    C157   C156      1.39759      .   S
    H65    C190      1.09012      .   S
    C198   C197      1.23218  1_545   S
    C198   H70       1.06508      .   S
    O277   C212      1.28334      .   S
    C197   C196      1.46502      .   S
    C155   C156      1.39708      .   S
    C155   H48       1.09100      .   S
    C187   C186      1.40485      .   S
    C187   C188      1.43426      .   S
    C156   H49       1.09279      .   S
    C105   C110      1.39652      .   S
    C105   C101      1.43277      .   S
    C110   H27       1.09083      .   S
    H64    C186      1.08535      .   S
    C190   C188      1.39757      .   S
    C190   C191      1.39683      .   S
    O278   C212      1.28914      .   S
    H55    C168      1.09264      .   S
    C102   H22       1.08501      .   S
    C102   C101      1.40455      .   S
    C212   C211      1.46586      .   S
    C186   C185      1.40639      .   S
    C196   O271      1.16546  1_655   S
    C196   O272      1.28721      .   S
    H66    C191      1.09262      .   S
    O271   Zn11      1.98889      .   S
    C188   C189      1.47923      .   S
    H76    C210      1.08508      .   S
    H56    C169      0.86238  1_655   S
    C101   C100      1.46701      .   S
    C191   C192      1.39763      .   S
    C168   C169      1.39665      .   S
    C168   C167      1.39747      .   S
    H54    C167      1.09265      .   S
    C169   C170      1.39660      .   S
    O272   Zn8       1.98168      .   S
    C211   C210      1.40522      .   S
    C211   C219      1.43208      .   S
    C210   C209      1.40587      .   S
    C167   C166      1.39634      .   S
    C185   C189      1.43412      .   S
    C185   C184      1.46580      .   S
    C189   C194      1.39651      .   S
    O275   Zn11      1.84364  1_655   S
    O275   C208      1.28885      .   S
    Zn11   O268      1.98172      .   S
    C170   H57       0.98114      .   S
    C170   C165      1.39651      .   S
    O268   C184      1.28300      .   S
    C100   O238      1.28456      .   S
    C100   O237      1.28665      .   S
    C192   H67       0.90352  1_565   S
    C192   C193      1.39680      .   S
    H81    C218      1.09094      .   S
    C166   H53       1.09045      .   S
    C166   C164      1.39710      .   S
    C184   O267      1.29035      .   S
    H42    C143      1.09245      .   S
    C209   C208      1.46658      .   S
    C209   C213      1.43348      .   S
    C219   C218      1.39684      .   S
    C219   C213      1.48067      .   S
    C194   C193      1.39667      .   S
    C194   H69       1.09070      .   S
    H43    C144      1.09285      .   S
    C165   C164      1.47956      .   S
    C165   C161      1.42693      .   S
    C208   O276      1.28467      .   S
    C193   H68       1.05575  1_565   S
    C218   C217      1.16101      .   S
    C164   C163      1.43362      .   S
    Zn8    O259      1.85708  1_665   S
    Zn8    O235      1.95962      .   S
    O259   C160      1.16017      .   S
    C143   C144      1.39659      .   S
    C161   C160      1.34345      .   S
    C217   H80       1.09194      .   S
    O232   Zn0       1.96246      .   S
    O232   Zn3       1.96235      .   S
    O253   Zn4       1.96641      .   S
    O253   Zn5       1.96834      .   S
    O258   Zn8       1.95257  1_455   S
    O258   Zn11      1.91764      .   S
    O279   Zn12      1.96710      .   S
    O279   Zn13      1.96801      .   S
