# CIF file generated by openbabel 2.4.90, see http://openbabel.sf.net
data_I
_chemical_name_common ''
_cell_length_a 18.942
_cell_length_b 18.96
_cell_length_c 18.965
_cell_angle_alpha 59.983
_cell_angle_beta 60.023
_cell_angle_gamma 60.017
_space_group_name_H-M_alt 'P 1'
_space_group_name_Hall 'P 1'
loop_
    _symmetry_equiv_pos_as_xyz
    x,y,z
loop_
    _atom_site_label
    _atom_site_type_symbol
    _atom_site_fract_x
    _atom_site_fract_y
    _atom_site_fract_z
    _atom_site_occupancy
    H0      H    0.76662   0.99349   0.47287   1.000
    H1      H    0.99380   0.76662   0.76688   1.000
    H2      H    0.47362   0.76671   0.76612   1.000
    H3      H    0.76692   0.47330   0.99330   1.000
    H4      H    0.76650   0.47314   0.76659   1.000
    H5      H    0.99390   0.76656   0.47289   1.000
    H6      H    0.47356   0.76621   0.99340   1.000
    H7      H    0.76698   0.99401   0.76649   1.000
    H8      H    0.76662   0.76714   0.99380   1.000
    H9      H    0.99375   0.47376   0.76603   1.000
    H10     H    0.47392   0.99345   0.76648   1.000
    H11     H    0.76682   0.76646   0.47259   1.000
    H12     H    0.00599   0.23368   0.52707   1.000
    H13     H    0.23335   0.00606   0.23292   1.000
    H14     H    0.23328   0.52680   0.23379   1.000
    H15     H    0.52643   0.23323   0.00648   1.000
    H16     H    0.52637   0.23370   0.23320   1.000
    H17     H    0.23301   0.00650   0.52702   1.000
    H18     H    0.23348   0.52671   0.00673   1.000
    H19     H    0.00616   0.23308   0.23342   1.000
    H20     H    0.23293   0.23340   0.00608   1.000
    H21     H    0.52602   0.00649   0.23391   1.000
    H22     H    0.00633   0.52625   0.23367   1.000
    H23     H    0.23333   0.23322   0.52739   1.000
    C24     C    0.75748   0.88516   0.47159   1.000
    C25     C    0.88539   0.75763   0.88556   1.000
    C26     C    0.47269   0.88529   0.75704   1.000
    C27     C    0.88555   0.47243   0.88483   1.000
    C28     C    0.75745   0.47212   0.88515   1.000
    C29     C    0.88543   0.88522   0.47180   1.000
    C30     C    0.47253   0.75718   0.88491   1.000
    C31     C    0.88559   0.88547   0.75740   1.000
    C32     C    0.75754   0.88580   0.88531   1.000
    C33     C    0.88529   0.47235   0.75708   1.000
    C34     C    0.47263   0.88499   0.88515   1.000
    C35     C    0.88556   0.75728   0.47162   1.000
    C36     C    0.11449   0.24267   0.52836   1.000
    C37     C    0.24238   0.11456   0.11420   1.000
    C38     C    0.11461   0.52761   0.24297   1.000
    C39     C    0.52732   0.11465   0.11504   1.000
    C40     C    0.52746   0.24274   0.11467   1.000
    C41     C    0.11430   0.11493   0.52810   1.000
    C42     C    0.24266   0.52784   0.11510   1.000
    C43     C    0.11459   0.11438   0.24245   1.000
    C44     C    0.11432   0.24251   0.11458   1.000
    C45     C    0.52728   0.11494   0.24285   1.000
    C46     C    0.11474   0.52761   0.11499   1.000
    C47     C    0.24242   0.11464   0.52834   1.000
    C48     C    0.80019   0.92769   0.47165   1.000
    C49     C    0.92800   0.80026   0.80032   1.000
    C50     C    0.47252   0.80008   0.79969   1.000
    C51     C    0.80034   0.47218   0.92749   1.000
    C52     C    0.80008   0.47209   0.79997   1.000
    C53     C    0.92804   0.80005   0.47166   1.000
    C54     C    0.47247   0.79980   0.92755   1.000
    C55     C    0.80041   0.92816   0.80008   1.000
    C56     C    0.80020   0.80056   0.92797   1.000
    C57     C    0.92792   0.47243   0.79965   1.000
    C58     C    0.47266   0.92764   0.79990   1.000
    C59     C    0.80031   0.79998   0.47140   1.000
    C60     C    0.07185   0.20008   0.52829   1.000
    C61     C    0.19976   0.07192   0.19952   1.000
    C62     C    0.19983   0.52787   0.20027   1.000
    C63     C    0.52751   0.19984   0.07234   1.000
    C64     C    0.52746   0.20013   0.19990   1.000
    C65     C    0.19954   0.07229   0.52826   1.000
    C66     C    0.19995   0.52783   0.07254   1.000
    C67     C    0.07195   0.19962   0.19980   1.000
    C68     C    0.19950   0.19981   0.07191   1.000
    C69     C    0.52730   0.07230   0.20020   1.000
    C70     C    0.07216   0.52757   0.20019   1.000
    C71     C    0.19974   0.19981   0.52848   1.000
loop_
    _geom_bond_atom_site_label_1
    _geom_bond_atom_site_label_2
    _geom_bond_distance
    _geom_bond_site_symmetry_2
    _ccdc_geom_bond_type
    H20    C68       1.08754      .   S
    H15    C63       1.08754      .   S
    H18    C66       1.08738      .   S
    C68    C37       1.39909      .   S
    C68    C44       1.39959      .   S
    C63    C40       1.39938      .   S
    C63    C39       1.39955      .   S
    C66    C46       1.39936      .   S
    C66    C42       1.39960      .   S
    C37    C61       1.40058      .   S
    C44    C67       1.39951      .   S
    C40    C64       1.39958      .   S
    C46    C70       1.39946      .   S
    C39    C69       1.39830      .   S
    C42    C62       1.39932      .   S
    C61    H13       1.08750      .   S
    C61    C43       1.39949      .   S
    C67    H19       1.08747      .   S
    C67    C43       1.39963      .   S
    C64    H16       1.08638      .   S
    C64    C45       1.39955      .   S
    C70    H22       1.08749      .   S
    C70    C38       1.39941      .   S
    C69    H21       1.08751      .   S
    C69    C45       1.40075      .   S
    C62    H14       1.08761      .   S
    C62    C38       1.39954      .   S
    C59    C24       1.39991      .   S
    C59    C35       1.39994      .   S
    C59    H11       1.08664      .   S
    C24    C48       1.39960      .   S
    C35    C53       1.39948      .   S
    C48    C29       1.39931      .   S
    C48    H0        1.08747      .   S
    C53    C29       1.39942      .   S
    C53    H5        1.08749      .   S
    H17    C65       1.08747      .   S
    H12    C60       1.08745      .   S
    H23    C71       1.08759      .   S
    C41    C65       1.39946      .   S
    C41    C60       1.39934      .   S
    C65    C47       1.39954      .   S
    C60    C36       1.39946      .   S
    C47    C71       1.39954      .   S
    C36    C71       1.39945      .   S
    C26    C50       1.39967      .   S
    C26    C58       1.39925      .   S
    C33    C57       1.39941      .   S
    C33    C52       1.39949      .   S
    C31    C55       1.39960      .   S
    C31    C49       1.39950      .   S
    H9     C57       1.08750      .   S
    H2     C50       1.08751      .   S
    H10    C58       1.08753      .   S
    H7     C55       1.08752      .   S
    H4     C52       1.08755      .   S
    H1     C49       1.08753      .   S
    C57    C27       1.39935      .   S
    C50    C30       1.39949      .   S
    C58    C34       1.39975      .   S
    C52    C28       1.39951      .   S
    C55    C32       1.39948      .   S
    C49    C25       1.39957      .   S
    C27    C51       1.39946      .   S
    C30    C54       1.39958      .   S
    C34    C54       1.39940      .   S
    C28    C51       1.39950      .   S
    C32    C56       1.39968      .   S
    C25    C56       1.39952      .   S
    C51    H3        1.08744      .   S
    C54    H6        1.08743      .   S
    C56    H8        1.08746      .   S
