# CIF file generated by openbabel 2.4.90, see http://openbabel.sf.net
data_I
_chemical_name_common ''
_cell_length_a 18.942
_cell_length_b 18.96
_cell_length_c 18.965
_cell_angle_alpha 59.983
_cell_angle_beta 60.023
_cell_angle_gamma 60.017
_space_group_name_H-M_alt 'P 1'
_space_group_name_Hall 'P 1'
loop_
    _symmetry_equiv_pos_as_xyz
    x,y,z
loop_
    _atom_site_label
    _atom_site_type_symbol
    _atom_site_fract_x
    _atom_site_fract_y
    _atom_site_fract_z
    _atom_site_occupancy
    N0      N    0.84273   0.84285   0.84265   1.000
    N1      N    0.15719   0.15754   0.52792   1.000
    N2      N    0.84271   0.84243   0.47201   1.000
    N3      N    0.84264   0.47264   0.84223   1.000
    N4      N    0.47296   0.84237   0.84225   1.000
    N5      N    0.15721   0.15726   0.15721   1.000
    N6      N    0.52702   0.15756   0.15762   1.000
    N7      N    0.15745   0.52734   0.15781   1.000
    Zr8     Zr   0.99999   0.50009   0.99999   1.000
    O9      O    0.93751   0.63859   0.93755   1.000
    O10     O    0.06237   0.36157   0.06247   1.000
    O11     O    0.06255   0.51322   0.06268   1.000
    O12     O    0.93756   0.48689   0.93724   1.000
    Zr13    Zr   0.49995   0.99998   0.99996   1.000
    O14     O    0.51301   0.06252   0.06265   1.000
    O15     O    0.36145   0.06246   0.06233   1.000
    O16     O    0.48692   0.93731   0.93736   1.000
    O17     O    0.63847   0.93766   0.93744   1.000
    Zr18    Zr   0.99998   0.49996   0.50002   1.000
    O19     O    0.93746   0.48679   0.63828   1.000
    O20     O    0.93757   0.63834   0.48649   1.000
    O21     O    0.06249   0.51315   0.36177   1.000
    O22     O    0.06241   0.36160   0.51351   1.000
    Zr23    Zr   0.49996   0.00004   0.49995   1.000
    O24     O    0.36146   0.06255   0.51347   1.000
    O25     O    0.63845   0.93741   0.48644   1.000
    O26     O    0.51300   0.06266   0.36165   1.000
    O27     O    0.48695   0.93746   0.63824   1.000
    Zr28    Zr   0.99999   0.99998   0.49988   1.000
    O29     O    0.93758   0.93754   0.63837   1.000
    O30     O    0.06248   0.06240   0.36143   1.000
    O31     O    0.06235   0.06264   0.51331   1.000
    O32     O    0.93752   0.93740   0.48649   1.000
    Zr33    Zr   0.50004   0.49995   0.99993   1.000
    O34     O    0.51310   0.36161   0.06250   1.000
    O35     O    0.63848   0.48671   0.93734   1.000
    O36     O    0.36162   0.51322   0.06270   1.000
    O37     O    0.48695   0.63830   0.93725   1.000
loop_
    _geom_bond_atom_site_label_1
    _geom_bond_atom_site_label_2
    _geom_bond_distance
    _geom_bond_site_symmetry_2
    _ccdc_geom_bond_type
    Zr8    O9        2.20944      .   S
    N0     O9        3.28125      .   S
    Zr8    O10       2.20953  1_656   S
    N5     O10       3.28141      .   S
    Zr8    O11       2.20875  1_656   S
    N7     O11       3.28064      .   S
    Zr8    O12       2.20849      .   S
    N3     O12       3.28047      .   S
    Zr13   O14       2.20881  1_566   S
    N6     O14       3.28083      .   S
    Zr13   O15       2.20909  1_566   S
    N5     O15       3.28087      .   S
    Zr13   O16       2.20894      .   S
    N4     O16       3.28092      .   S
    Zr13   O17       2.20916      .   S
    N0     O17       3.28090      .   S
    Zr18   O19       2.20848      .   S
    N3     O19       3.28024      .   S
    Zr18   O20       2.20832      .   S
    N2     O20       3.27988      .   S
    Zr18   O21       2.20843  1_655   S
    N7     O21       3.28019      .   S
    Zr18   O22       2.20824  1_655   S
    N1     O22       3.27977      .   S
    Zr23   O24       2.20852      .   S
    N1     O24       3.28012      .   S
    Zr23   O25       2.20833  1_545   S
    N2     O25       3.27990      .   S
    Zr23   O26       2.20905      .   S
    N6     O26       3.28112      .   S
    Zr23   O27       2.20896  1_545   S
    N4     O27       3.28089      .   S
    Zr28   O29       2.20967      .   S
    N0     O29       3.28162      .   S
    Zr28   O30       2.20933  1_665   S
    N5     O30       3.28128      .   S
    Zr28   O31       2.20848  1_665   S
    N1     O31       3.28134      .   S
    Zr28   O32       2.20872      .   S
    N2     O32       3.28064      .   S
    Zr33   O34       2.20904  1_556   S
    N6     O34       3.28098      .   S
    Zr33   O35       2.20857      .   S
    N3     O35       3.28028      .   S
    Zr33   O36       2.20838  1_556   S
    N7     O36       3.28009      .   S
    Zr33   O37       2.20902      .   S
    N4     O37       3.28096      .   S
