# CIF file generated by openbabel 2.4.90, see http://openbabel.sf.net
data_I
_chemical_name_common ''
_cell_length_a 14.239
_cell_length_b 14.542
_cell_length_c 15.068
_cell_angle_alpha 89.691
_cell_angle_beta 90.222
_cell_angle_gamma 90.189
_space_group_name_H-M_alt 'P 1'
_space_group_name_Hall 'P 1'
loop_
    _symmetry_equiv_pos_as_xyz
    x,y,z
loop_
    _atom_site_label
    _atom_site_type_symbol
    _atom_site_fract_x
    _atom_site_fract_y
    _atom_site_fract_z
    _atom_site_occupancy
    Zn0     Zn   0.69105   0.66043   0.82545   1.000
    Zn1     Zn   0.93441   0.45719   0.44800   1.000
    Zn2     Zn   0.80696   0.34317   0.32602   1.000
    Zn3     Zn   0.43229   0.04305   0.55122   1.000
    Zn4     Zn   0.30810   0.16027   0.67097   1.000
    Zn5     Zn   0.06568   0.96061   0.05095   1.000
    Zn6     Zn   0.18983   0.84369   0.17448   1.000
    C7      C    0.70654   0.62710   0.03106   1.000
    C8      C    0.97923   0.81783   0.13293   1.000
    C9      C    0.86925   0.55108   0.31655   1.000
    Zn10    Zn   0.56481   0.54309   0.94793   1.000
    C11     C    0.79465   0.37301   0.53258   1.000
    C12     C    0.51902   0.18534   0.63281   1.000
    C13     C    0.63039   0.45193   0.81455   1.000
    C14     C    0.29456   0.12703   0.46475   1.000
    C15     C    0.02000   0.31700   0.36723   1.000
    C16     C    0.12647   0.05395   0.18122   1.000
    C17     C    0.20497   0.87461   0.96790   1.000
    C18     C    0.47916   0.68601   0.86935   1.000
    C19     C    0.36885   0.95043   0.68350   1.000
    O20     O    0.65434   0.55544   0.04438   1.000
    O21     O    0.69890   0.67997   0.96403   1.000
    O22     O    0.96767   0.86716   0.06240   1.000
    O23     O    0.04417   0.83132   0.18969   1.000
    O24     O    0.94212   0.56204   0.36671   1.000
    O25     O    0.80745   0.48944   0.33272   1.000
    O26     O    0.84752   0.44407   0.54619   1.000
    O27     O    0.80238   0.32066   0.46574   1.000
    O28     O    0.53040   0.13617   0.56269   1.000
    O29     O    0.45368   0.17229   0.68890   1.000
    O30     O    0.55802   0.44066   0.86500   1.000
    O31     O    0.69188   0.51391   0.82942   1.000
    O32     O    0.34569   0.05503   0.45188   1.000
    O33     O    0.30435   0.17981   0.53110   1.000
    O34     O    0.03244   0.36480   0.43824   1.000
    O35     O    0.95451   0.33173   0.31133   1.000
    O36     O    0.05397   0.06635   0.13092   1.000
    O37     O    0.18667   0.99156   0.16413   1.000
    O38     O    0.15219   0.94528   0.95304   1.000
    O39     O    0.19745   0.82268   0.03560   1.000
    O40     O    0.46841   0.63722   0.94048   1.000
    O41     O    0.54326   0.67189   0.81253   1.000
    O42     O    0.44079   0.93822   0.63313   1.000
    O43     O    0.30818   0.01267   0.66698   1.000
loop_
    _geom_bond_atom_site_label_1
    _geom_bond_atom_site_label_2
    _geom_bond_distance
    _geom_bond_site_symmetry_2
    _ccdc_geom_bond_type
    C7     O20       1.29321      .   S
    C7     O21       1.27058  1_554   S
    O39    Zn6       2.11971      .   S
    O39    C17       1.27060  1_554   S
    O20    Zn10      1.93818  1_554   S
    Zn5    O22       1.95215  1_455   S
    Zn5    O36       1.96659  1_565   S
    Zn5    O38       1.93981  1_554   S
    O22    C8        1.28934      .   S
    O36    C16       1.29085      .   S
    C8     O23       1.27251  1_655   S
    O37    Zn6       2.15574      .   S
    O37    C16       1.27815  1_565   S
    Zn6    O23       2.09457      .   S
    O35    Zn2       2.12068      .   S
    O35    C15       1.27210  1_655   S
    C9     O25       1.27716      .   S
    C9     O24       1.29125      .   S
    Zn2    O25       2.12998      .   S
    Zn2    O27       2.13008      .   S
    O24    Zn1       1.95369      .   S
    C15    O34       1.29036      .   S
    O34    Zn1       1.94710  1_455   S
    Zn1    O26       1.94057      .   S
    O32    C14       1.29314      .   S
    O32    Zn3       1.94308      .   S
    C14    O33       1.27060      .   S
    O27    C11       1.27110      .   S
    O33    Zn4       2.12559      .   S
    C11    O26       1.29336      .   S
    Zn3    O28       1.95023      .   S
    Zn3    O42       1.96003  1_545   S
    O28    C12       1.28998      .   S
    C12    O29       1.27245      .   S
    O42    C19       1.29051      .   S
    O43    Zn4       2.14769      .   S
    O43    C19       1.27611  1_545   S
    Zn4    O29       2.09618      .   S
    O41    Zn0       2.11967      .   S
    O41    C18       1.27172      .   S
    C13    O31       1.27468      .   S
    C13    O30       1.29232      .   S
    Zn0    O31       2.13130      .   S
    Zn0    O21       2.11135      .   S
    O30    Zn10      1.95143      .   S
    C18    O40       1.29148      .   S
    O40    Zn10      1.94416      .   S
    O38    C17       1.29311      .   S
