# CIF file generated by openbabel 2.4.90, see http://openbabel.sf.net
data_I
_chemical_name_common ''
_cell_length_a 14.239
_cell_length_b 14.542
_cell_length_c 15.068
_cell_angle_alpha 89.691
_cell_angle_beta 90.222
_cell_angle_gamma 90.189
_space_group_name_H-M_alt 'P 1'
_space_group_name_Hall 'P 1'
loop_
    _symmetry_equiv_pos_as_xyz
    x,y,z
loop_
    _atom_site_label
    _atom_site_type_symbol
    _atom_site_fract_x
    _atom_site_fract_y
    _atom_site_fract_z
    _atom_site_occupancy
    Zr0     Zr   0.56481   0.54309   0.94793   1.000
    Zr1     Zr   0.69105   0.66043   0.82545   1.000
    Zr2     Zr   0.93441   0.45719   0.44800   1.000
    Zr3     Zr   0.80696   0.34317   0.32602   1.000
    Zr4     Zr   0.43229   0.04305   0.55122   1.000
    Zr5     Zr   0.30810   0.16027   0.67097   1.000
    Zr6     Zr   0.06568   0.96061   0.05095   1.000
    Zr7     Zr   0.18983   0.84369   0.17448   1.000
    Zr8     Zr   0.70654   0.62710   0.03106   1.000
    Zr9     Zr   0.97923   0.81783   0.13293   1.000
    Zr10    Zr   0.86925   0.55108   0.31655   1.000
    Zr11    Zr   0.79465   0.37301   0.53258   1.000
    Zr12    Zr   0.51902   0.18534   0.63281   1.000
    Zr13    Zr   0.63039   0.45193   0.81455   1.000
    Zr14    Zr   0.29456   0.12703   0.46475   1.000
    Zr15    Zr   0.02000   0.31700   0.36723   1.000
    Zr16    Zr   0.12647   0.05395   0.18122   1.000
    Zr17    Zr   0.20497   0.87461   0.96790   1.000
    Zr18    Zr   0.47916   0.68601   0.86935   1.000
    Zr19    Zr   0.36885   0.95043   0.68350   1.000
    Zr20    Zr   0.65434   0.55544   0.04438   1.000
    Zr21    Zr   0.69890   0.67997   0.96403   1.000
    Zr22    Zr   0.96767   0.86716   0.06240   1.000
    Zr23    Zr   0.04417   0.83132   0.18969   1.000
    Zr24    Zr   0.94212   0.56204   0.36671   1.000
    Zr25    Zr   0.80745   0.48944   0.33272   1.000
    Zr26    Zr   0.84752   0.44407   0.54619   1.000
    Zr27    Zr   0.80238   0.32066   0.46574   1.000
    Zr28    Zr   0.53040   0.13617   0.56269   1.000
    Zr29    Zr   0.45368   0.17229   0.68890   1.000
    Zr30    Zr   0.55802   0.44066   0.86500   1.000
    Zr31    Zr   0.69188   0.51391   0.82942   1.000
    Zr32    Zr   0.34569   0.05503   0.45188   1.000
    Zr33    Zr   0.30435   0.17981   0.53110   1.000
    Zr34    Zr   0.03244   0.36480   0.43824   1.000
    Zr35    Zr   0.95451   0.33173   0.31133   1.000
    Zr36    Zr   0.05397   0.06635   0.13092   1.000
    Zr37    Zr   0.18667   0.99156   0.16413   1.000
    Zr38    Zr   0.15219   0.94528   0.95304   1.000
    Zr39    Zr   0.19745   0.82268   0.03560   1.000
    Zr40    Zr   0.46841   0.63722   0.94048   1.000
    Zr41    Zr   0.54326   0.67189   0.81253   1.000
    Zr42    Zr   0.44079   0.93822   0.63313   1.000
    Zr43    Zr   0.30818   0.01267   0.66698   1.000
    O44     O    0.68044   0.59127   0.03772   1.000
    O45     O    0.70272   0.65353   0.99755   1.000
    O46     O    0.19364   0.83318   0.10504   1.000
    O47     O    0.20121   0.84865   0.00175   1.000
    O48     O    0.60958   0.54927   0.99616   1.000
    O49     O    0.01667   0.91389   0.05668   1.000
    O50     O    0.05983   0.01348   0.09094   1.000
    O51     O    0.10893   0.95294   0.00200   1.000
    O52     O    0.97345   0.84250   0.09767   1.000
    O53     O    0.09022   0.06015   0.15607   1.000
    O54     O    0.01170   0.82458   0.16131   1.000
    O55     O    0.18825   0.91762   0.16930   1.000
    O56     O    0.15657   0.02276   0.17267   1.000
    O57     O    0.11700   0.83751   0.18208   1.000
    O58     O    0.88073   0.33745   0.31867   1.000
    O59     O    0.98725   0.32437   0.33928   1.000
    O60     O    0.83835   0.52026   0.32464   1.000
    O61     O    0.90569   0.55656   0.34163   1.000
    O62     O    0.80720   0.41631   0.32937   1.000
    O63     O    0.80467   0.33192   0.39588   1.000
    O64     O    0.93827   0.50961   0.40736   1.000
    O65     O    0.02622   0.34090   0.40274   1.000
    O66     O    0.98343   0.41099   0.44312   1.000
    O67     O    0.89097   0.45063   0.49710   1.000
    O68     O    0.32013   0.09103   0.45831   1.000
    O69     O    0.38899   0.04904   0.50155   1.000
    O70     O    0.29946   0.15342   0.49793   1.000
    O71     O    0.79852   0.34683   0.49916   1.000
    O72     O    0.30623   0.17004   0.60103   1.000
    O73     O    0.82108   0.40854   0.53939   1.000
    O74     O    0.48134   0.08961   0.55695   1.000
    O75     O    0.43654   0.99064   0.59218   1.000
    O76     O    0.52471   0.16075   0.59775   1.000
    O77     O    0.48635   0.17881   0.66086   1.000
    O78     O    0.40482   0.94432   0.65831   1.000
    O79     O    0.30814   0.08647   0.66898   1.000
    O80     O    0.33852   0.98155   0.67524   1.000
    O81     O    0.38089   0.16628   0.67993   1.000
    O82     O    0.61715   0.66616   0.81899   1.000
    O83     O    0.51121   0.67895   0.84094   1.000
    O84     O    0.66114   0.48292   0.82199   1.000
    O85     O    0.59421   0.44629   0.83978   1.000
    O86     O    0.69147   0.58717   0.82744   1.000
    O87     O    0.69497   0.67020   0.89474   1.000
    O88     O    0.56142   0.49187   0.90647   1.000
    O89     O    0.47379   0.66162   0.90491   1.000
    O90     O    0.51661   0.59016   0.94420   1.000
    O91     O    0.17858   0.90994   0.96047   1.000
    N92     N    0.34944   0.83571   0.83913   1.000
    O93     O    0.39740   0.77999   0.85039   1.000
    O94     O    0.35647   0.87803   0.78115   1.000
    O95     O    0.29556   0.85001   0.88672   1.000
    N96     N    0.85005   0.66678   0.16156   1.000
    O97     O    0.79651   0.65216   0.11336   1.000
    O98     O    0.89778   0.72303   0.15099   1.000
    O99     O    0.85703   0.62413   0.21936   1.000
    N100    N    0.64960   0.33506   0.66147   1.000
    O101    O    0.60137   0.27929   0.65092   1.000
    O102    O    0.70374   0.34898   0.61388   1.000
    O103    O    0.64258   0.37813   0.71856   1.000
    N104    N    0.14874   0.16725   0.33633   1.000
    O105    O    0.14065   0.12543   0.27853   1.000
    O106    O    0.10118   0.22303   0.34774   1.000
    O107    O    0.20316   0.15242   0.38373   1.000
loop_
    _geom_bond_atom_site_label_1
    _geom_bond_atom_site_label_2
    _geom_bond_distance
    _geom_bond_site_symmetry_2
    _ccdc_geom_bond_type
    Zr8    O44       0.64660      .   S
    Zr20   O44       0.64660      .   S
    Zr8    O45       0.63529  1_554   S
    Zr21   O45       0.63529      .   S
    Zr39   O46       1.05985      .   S
    Zr7    O46       1.05985      .   S
    Zr39   O47       0.63530      .   S
    Zr17   O47       0.63530  1_556   S
    Zr20   O48       0.96909  1_554   S
    Zr0    O48       0.96909      .   S
    Zr6    O49       0.97608      .   S
    Zr22   O49       0.97608  1_655   S
    Zr6    O50       0.98330  1_565   S
    Zr36   O50       0.98330      .   S
    Zr6    O51       0.96991      .   S
    Zr38   O51       0.96991  1_556   S
    Zr22   O52       0.64467      .   S
    Zr9    O52       0.64467      .   S
    Zr36   O53       0.64542      .   S
    Zr16   O53       0.64542      .   S
    Zr9    O54       0.63626  1_655   S
    Zr23   O54       0.63626      .   S
    Zr37   O55       1.07787      .   S
    Zr7    O55       1.07787      .   S
    Zr37   O56       0.63908  1_565   S
    Zr16   O56       0.63908      .   S
    Zr7    O57       1.04729      .   S
    Zr23   O57       1.04729      .   S
    Zr35   O58       1.06034      .   S
    Zr3    O58       1.06034      .   S
    Zr35   O59       0.63605      .   S
    Zr15   O59       0.63605  1_455   S
    Zr10   O60       0.63858      .   S
    Zr25   O60       0.63858      .   S
    Zr10   O61       0.64562      .   S
    Zr24   O61       0.64562      .   S
    Zr3    O62       1.06499      .   S
    Zr25   O62       1.06499      .   S
    Zr3    O63       1.06504      .   S
    Zr27   O63       1.06504      .   S
    Zr24   O64       0.97685      .   S
    Zr2    O64       0.97685      .   S
    Zr15   O65       0.64518      .   S
    Zr34   O65       0.64518      .   S
    Zr34   O66       0.97355  1_455   S
    Zr2    O66       0.97355      .   S
    Zr2    O67       0.97028      .   S
    Zr26   O67       0.97028      .   S
    Zr32   O68       0.64657      .   S
    Zr14   O68       0.64657      .   S
    Zr32   O69       0.97154      .   S
    Zr4    O69       0.97154      .   S
    Zr14   O70       0.63530      .   S
    Zr33   O70       0.63530      .   S
    Zr27   O71       0.63555      .   S
    Zr11   O71       0.63555      .   S
    Zr33   O72       1.06280      .   S
    Zr5    O72       1.06280      .   S
    Zr11   O73       0.64668      .   S
    Zr26   O73       0.64668      .   S
    Zr4    O74       0.97511      .   S
    Zr28   O74       0.97511      .   S
    Zr4    O75       0.98001  1_545   S
    Zr42   O75       0.98001      .   S
    Zr28   O76       0.64499      .   S
    Zr12   O76       0.64499      .   S
    Zr12   O77       0.63623      .   S
    Zr29   O77       0.63623      .   S
    Zr42   O78       0.64525      .   S
    Zr19   O78       0.64525      .   S
    Zr43   O79       1.07384      .   S
    Zr5    O79       1.07384      .   S
    Zr43   O80       0.63806  1_545   S
    Zr19   O80       0.63806      .   S
    Zr5    O81       1.04809      .   S
    Zr29   O81       1.04809      .   S
    Zr41   O82       1.05984      .   S
    Zr1    O82       1.05984      .   S
    Zr41   O83       0.63586      .   S
    Zr18   O83       0.63586      .   S
    Zr13   O84       0.63734      .   S
    Zr31   O84       0.63734      .   S
    Zr13   O85       0.64616      .   S
    Zr30   O85       0.64616      .   S
    Zr1    O86       1.06565      .   S
    Zr31   O86       1.06565      .   S
    Zr1    O87       1.05568      .   S
    Zr21   O87       1.05568      .   S
    Zr30   O88       0.97571      .   S
    Zr0    O88       0.97571      .   S
    Zr18   O89       0.64574      .   S
    Zr40   O89       0.64574      .   S
    Zr40   O90       0.97208      .   S
    Zr0    O90       0.97208      .   S
    Zr38   O91       0.64656      .   S
    Zr17   O91       0.64656      .   S
    N92    O93       1.07363      .   S
    Zr18   O93       1.81894      .   S
    N92    O94       1.07081      .   S
    Zr19   O94       1.81342      .   S
    N92    O95       1.07370      .   S
    Zr17   O95       1.81893      .   S
    N96    O97       1.07249      .   S
    Zr8    O97       1.81699      .   S
    N96    O98       1.07336      .   S
    Zr9    O98       1.81869      .   S
    N96    O99       1.07086      .   S
    Zr10   O99       1.81276      .   S
    N100   O101      1.07316      .   S
    Zr12   O101      1.81851      .   S
    N100   O102      1.07288      .   S
    Zr11   O102      1.81747      .   S
    N100   O103      1.07196      .   S
    Zr13   O103      1.81486      .   S
    N104   O105      1.07053      .   S
    Zr16   O105      1.81211      .   S
    N104   O106      1.07342      .   S
    Zr15   O106      1.81866      .   S
    N104   O107      1.07340      .   S
    Zr14   O107      1.81836      .   S
