# CIF file generated by openbabel 2.4.90, see http://openbabel.sf.net
data_I
_chemical_name_common ''
_cell_length_a 7.4575
_cell_length_b 7.4915
_cell_length_c 13.05
_cell_angle_alpha 88.595
_cell_angle_beta 89.968
_cell_angle_gamma 88.302
_space_group_name_H-M_alt 'P 1'
_space_group_name_Hall 'P 1'
loop_
    _symmetry_equiv_pos_as_xyz
    x,y,z
loop_
    _atom_site_label
    _atom_site_type_symbol
    _atom_site_fract_x
    _atom_site_fract_y
    _atom_site_fract_z
    _atom_site_occupancy
    Lv0     Lv   0.99345   0.22207   0.83995   1.000
    Lv1     Lv   0.78774   0.99631   0.33877   1.000
    Lv2     Lv   0.99812   0.79537   0.84202   1.000
    Lv3     Lv   0.78782   0.01420   0.66076   1.000
    Lv4     Lv   0.21231   0.00377   0.66120   1.000
    Lv5     Lv   0.00675   0.77778   0.16018   1.000
    Lv6     Lv   0.21216   0.98606   0.33933   1.000
    Lv7     Lv   0.00207   0.20451   0.15800   1.000
