# CIF file generated by openbabel 2.4.90, see http://openbabel.sf.net
data_I
_chemical_name_common ''
_cell_length_a 7.4575
_cell_length_b 7.4915
_cell_length_c 13.05
_cell_angle_alpha 88.595
_cell_angle_beta 89.968
_cell_angle_gamma 88.302
_space_group_name_H-M_alt 'P 1'
_space_group_name_Hall 'P 1'
loop_
    _symmetry_equiv_pos_as_xyz
    x,y,z
loop_
    _atom_site_label
    _atom_site_type_symbol
    _atom_site_fract_x
    _atom_site_fract_y
    _atom_site_fract_z
    _atom_site_occupancy
    Zn0     Zn   0.00052   0.98531   0.24923   1.000
    Ni1     Ni   0.99621   0.49999   0.00211   1.000
    Ni2     Ni   0.49946   0.00385   0.49996   1.000
    C3      C    0.99693   0.67955   0.90372   1.000
    C4      C    0.99394   0.33129   0.90244   1.000
    C5      C    0.32540   0.00131   0.59909   1.000
    C6      C    0.67534   0.00668   0.59874   1.000
    C7      C    0.00311   0.32035   0.09632   1.000
    C8      C    0.00616   0.66859   0.09767   1.000
    C9      C    0.67467   0.99879   0.40090   1.000
    C10     C    0.32471   0.99352   0.40131   1.000
    Zn11    Zn   0.99953   0.01469   0.75080   1.000
loop_
    _geom_bond_atom_site_label_1
    _geom_bond_atom_site_label_2
    _geom_bond_distance
    _geom_bond_site_symmetry_2
    _ccdc_geom_bond_type
    Ni1    C7        1.79999  1_655   S
    Ni1    C8        1.79970  1_655   S
    Ni1    C4        1.83611  1_554   S
    Ni1    C3        1.83683  1_554   S
    C9     Ni2       1.83772  1_565   S
    C10    Ni2       1.83697  1_565   S
    Ni2    C6        1.84053      .   S
    Ni2    C5        1.83231      .   S
