# CIF file generated by openbabel 2.4.90, see http://openbabel.sf.net
data_I
_chemical_name_common ''
_cell_length_a 7.4575
_cell_length_b 7.4915
_cell_length_c 13.05
_cell_angle_alpha 88.595
_cell_angle_beta 89.968
_cell_angle_gamma 88.302
_space_group_name_H-M_alt 'P 1'
_space_group_name_Hall 'P 1'
loop_
    _symmetry_equiv_pos_as_xyz
    x,y,z
loop_
    _atom_site_label
    _atom_site_type_symbol
    _atom_site_fract_x
    _atom_site_fract_y
    _atom_site_fract_z
    _atom_site_occupancy
    N0      N    0.99345   0.22207   0.83995   1.000
    N1      N    0.78774   0.99631   0.33877   1.000
    N2      N    0.99812   0.79537   0.84202   1.000
    N3      N    0.78782   0.01420   0.66076   1.000
    N4      N    0.21231   0.00377   0.66120   1.000
    N5      N    0.00675   0.77778   0.16018   1.000
    N6      N    0.21216   0.98606   0.33933   1.000
    N7      N    0.00207   0.20451   0.15800   1.000
    Zr8     Zr   0.99927   0.49995   0.00045   1.000
    O9      O    0.00293   0.62522   0.07250   1.000
    O10     O    0.99642   0.37466   0.92801   1.000
    O11     O    0.00080   0.36671   0.07152   1.000
    O12     O    0.99855   0.63318   0.92895   1.000
    Zr13    Zr   0.49992   0.00083   0.50000   1.000
    O14     O    0.62969   0.99888   0.42715   1.000
    O15     O    0.37025   0.00199   0.57284   1.000
    O16     O    0.62981   0.00657   0.57263   1.000
    O17     O    0.37011   0.99438   0.42741   1.000
    Zr18    Zr   0.99953   0.01469   0.75080   1.000
    O19     O    0.99900   0.93244   0.78501   1.000
    O20     O    0.92014   0.01450   0.71703   1.000
    O21     O    0.07932   0.01060   0.71720   1.000
    O22     O    0.99725   0.09246   0.78423   1.000
    Zr23    Zr   0.00052   0.98531   0.24923   1.000
    O24     O    0.92073   0.98943   0.28281   1.000
    O25     O    0.00286   0.90749   0.21583   1.000
    O26     O    0.07989   0.98559   0.28301   1.000
    O27     O    0.00110   0.06751   0.21502   1.000
loop_
    _geom_bond_atom_site_label_1
    _geom_bond_atom_site_label_2
    _geom_bond_distance
    _geom_bond_site_symmetry_2
    _ccdc_geom_bond_type
    Zr8    O9        1.34545  1_655   S
    N5     O9        1.63775      .   S
    Zr8    O10       1.34900  1_554   S
    N0     O10       1.64131      .   S
    Zr8    O11       1.34554  1_655   S
    N7     O11       1.63785      .   S
    Zr8    O12       1.34942  1_554   S
    N2     O12       1.64174      .   S
    Zr13   O14       1.35626  1_545   S
    N1     O14       1.64862      .   S
    Zr13   O15       1.35556      .   S
    N4     O15       1.64792      .   S
    Zr13   O16       1.35793      .   S
    N3     O16       1.65025      .   S
    Zr13   O17       1.35751  1_545   S
    N6     O17       1.64985      .   S
    Zr18   O19       0.75205  1_545   S
    N2     O19       1.25342      .   S
    Zr18   O20       0.73829      .   S
    N3     O20       1.23048      .   S
    Zr18   O21       0.73929  1_655   S
    N4     O21       1.23216      .   S
    Zr18   O22       0.73616      .   S
    N0     O22       1.22694      .   S
    Zr23   O24       0.73918  1_455   S
    N1     O24       1.23196      .   S
    Zr23   O25       0.73619      .   S
    N5     O25       1.22699      .   S
    Zr23   O26       0.73833      .   S
    N6     O26       1.23055      .   S
    Zr23   O27       0.75179  1_565   S
    N7     O27       1.25298      .   S
