# CIF file generated by openbabel 2.4.90, see http://openbabel.sf.net
data_I
_chemical_name_common ''
_cell_length_a 7.4575
_cell_length_b 7.4915
_cell_length_c 13.05
_cell_angle_alpha 88.595
_cell_angle_beta 89.968
_cell_angle_gamma 88.302
_space_group_name_H-M_alt 'P 1'
_space_group_name_Hall 'P 1'
loop_
    _symmetry_equiv_pos_as_xyz
    x,y,z
loop_
    _atom_site_label
    _atom_site_type_symbol
    _atom_site_fract_x
    _atom_site_fract_y
    _atom_site_fract_z
    _atom_site_occupancy
    C0      C    0.99953   0.01469   0.75080   1.000
    C1      C    0.00052   0.98531   0.24923   1.000
    C2      C    0.99621   0.49999   0.00211   1.000
    C3      C    0.49946   0.00385   0.49996   1.000
    C4      C    0.99693   0.67955   0.90372   1.000
    C5      C    0.99394   0.33129   0.90244   1.000
    C6      C    0.32540   0.00131   0.59909   1.000
    C7      C    0.67534   0.00668   0.59874   1.000
    C8      C    0.00311   0.32035   0.09632   1.000
    C9      C    0.00616   0.66859   0.09767   1.000
    C10     C    0.67467   0.99879   0.40090   1.000
    C11     C    0.32471   0.99352   0.40131   1.000
    C12     C    0.99812   0.79537   0.84202   1.000
    C13     C    0.99345   0.22207   0.83995   1.000
    C14     C    0.21231   0.00377   0.66120   1.000
    C15     C    0.78782   0.01420   0.66076   1.000
    C16     C    0.00207   0.20451   0.15800   1.000
    C17     C    0.00675   0.77778   0.16018   1.000
    C18     C    0.78774   0.99631   0.33877   1.000
    C19     C    0.21216   0.98606   0.33933   1.000
    O20     O    0.99966   0.41017   0.04921   1.000
    O21     O    0.00118   0.58429   0.04989   1.000
    O22     O    0.99507   0.41564   0.95228   1.000
    O23     O    0.99657   0.58977   0.95292   1.000
    O24     O    0.00259   0.26243   0.12716   1.000
    O25     O    0.00645   0.72318   0.12893   1.000
    O26     O    0.00130   0.09491   0.20361   1.000
    O27     O    0.00363   0.88154   0.20470   1.000
    O28     O    0.89413   0.99081   0.29400   1.000
    O29     O    0.10634   0.98569   0.29428   1.000
    O30     O    0.73120   0.99755   0.36984   1.000
    O31     O    0.26843   0.98979   0.37032   1.000
    O32     O    0.58707   0.00132   0.45043   1.000
    O33     O    0.41209   0.99869   0.45063   1.000
    O34     O    0.58740   0.00526   0.54935   1.000
    O35     O    0.41243   0.00258   0.54952   1.000
    O36     O    0.73158   0.01044   0.62975   1.000
    O37     O    0.26885   0.00254   0.63015   1.000
    O38     O    0.89368   0.01444   0.70578   1.000
    O39     O    0.10592   0.00923   0.70600   1.000
    O40     O    0.99649   0.11838   0.79538   1.000
    O41     O    0.99883   0.90503   0.79641   1.000
    O42     O    0.99369   0.27668   0.87120   1.000
    O43     O    0.99753   0.73746   0.87287   1.000
loop_
    _geom_bond_atom_site_label_1
    _geom_bond_atom_site_label_2
    _geom_bond_distance
    _geom_bond_site_symmetry_2
    _ccdc_geom_bond_type
    C2     O20       0.89999      .   S
    C8     O20       0.89999  1_455   S
    C2     O21       0.89985  1_655   S
    C9     O21       0.89985      .   S
    C2     O22       0.91805  1_554   S
    C5     O22       0.91805      .   S
    C2     O23       0.91842  1_554   S
    C4     O23       0.91842      .   S
    C8     O24       0.58466      .   S
    C16    O24       0.58466      .   S
    C9     O25       0.58467      .   S
    C17    O25       0.58467      .   S
    C16    O26       1.00239      .   S
    C1     O26       1.00239  1_565   S
    C17    O27       0.98159      .   S
    C1     O27       0.98159      .   S
    C1     O28       0.98557  1_455   S
    C18    O28       0.98557      .   S
    C1     O29       0.98444      .   S
    C19    O29       0.98444      .   S
    C18    O30       0.58476      .   S
    C10    O30       0.58476      .   S
    C19    O31       0.58472      .   S
    C11    O31       0.58472      .   S
    C10    O32       0.91886  1_565   S
    C3     O32       0.91886      .   S
    C11    O33       0.91848      .   S
    C3     O33       0.91848  1_545   S
    C3     O34       0.92026      .   S
    C7     O34       0.92026      .   S
    C3     O35       0.91615      .   S
    C6     O35       0.91615      .   S
    C7     O36       0.58472      .   S
    C15    O36       0.58472      .   S
    C6     O37       0.58476      .   S
    C14    O37       0.58476      .   S
    C15    O38       0.98439      .   S
    C0     O38       0.98439      .   S
    C14    O39       0.98573      .   S
    C0     O39       0.98573  1_655   S
    C0     O40       0.98155      .   S
    C13    O40       0.98155      .   S
    C0     O41       1.00274  1_545   S
    C12    O41       1.00274      .   S
    C13    O42       0.58467      .   S
    C5     O42       0.58467      .   S
    C12    O43       0.58467      .   S
    C4     O43       0.58467      .   S
