# CIF file generated by openbabel 2.4.90, see http://openbabel.sf.net
data_I
_chemical_name_common ''
_cell_length_a 15.554
_cell_length_b 14.514
_cell_length_c 15.025
_cell_angle_alpha 80.01
_cell_angle_beta 74.318
_cell_angle_gamma 77.467
_space_group_name_H-M_alt 'P 1'
_space_group_name_Hall 'P 1'
loop_
    _symmetry_equiv_pos_as_xyz
    x,y,z
loop_
    _atom_site_label
    _atom_site_type_symbol
    _atom_site_fract_x
    _atom_site_fract_y
    _atom_site_fract_z
    _atom_site_occupancy
    H0      H    0.76409   0.76074   0.48532   1.000
    H1      H    0.20905   0.95018   0.50236   1.000
    H2      H    0.97870   0.17745   0.50583   1.000
    H3      H    0.46716   0.75427   0.76468   1.000
    H4      H    0.51304   0.17543   0.97401   1.000
    H5      H    0.53069   0.95434   0.20294   1.000
    H6      H    0.77364   0.48338   0.76854   1.000
    H7      H    0.96938   0.50037   0.18201   1.000
    H8      H    0.20965   0.49905   0.95656   1.000
    H9      H    0.23550   0.23639   0.51702   1.000
    H10     H    0.79022   0.04760   0.49784   1.000
    H11     H    0.02046   0.82057   0.49678   1.000
    H12     H    0.53217   0.24302   0.23580   1.000
    H13     H    0.48666   0.82104   0.02668   1.000
    H14     H    0.46905   0.04267   0.79821   1.000
    H15     H    0.22516   0.51450   0.23530   1.000
    H16     H    0.02935   0.49778   0.82178   1.000
    H17     H    0.78910   0.49898   0.04725   1.000
    C18     C    0.23279   0.08975   0.51006   1.000
    C19     C    0.10285   0.21752   0.51182   1.000
    C20     C    0.19432   0.18589   0.51300   1.000
    C21     C    0.17963   0.02512   0.50560   1.000
    C22     C    0.04957   0.15314   0.50760   1.000
    C23     C    0.08811   0.05639   0.50488   1.000
    C24     C    0.52453   0.21926   0.10007   1.000
    C25     C    0.53211   0.09541   0.22977   1.000
    C26     C    0.53040   0.19076   0.19278   1.000
    C27     C    0.51940   0.15311   0.04522   1.000
    C28     C    0.52956   0.02865   0.17442   1.000
    C29     C    0.52144   0.05744   0.08328   1.000
    C30     C    0.09284   0.50731   0.21960   1.000
    C31     C    0.22827   0.50721   0.09230   1.000
    C32     C    0.18583   0.51067   0.18666   1.000
    C33     C    0.04153   0.50294   0.15721   1.000
    C34     C    0.17735   0.50220   0.03015   1.000
    C35     C    0.08409   0.50127   0.06150   1.000
    C36     C    0.76667   0.90767   0.49105   1.000
    C37     C    0.89654   0.78004   0.49073   1.000
    C38     C    0.80516   0.81146   0.48825   1.000
    C39     C    0.81968   0.97260   0.49521   1.000
    C40     C    0.94967   0.84470   0.49459   1.000
    C41     C    0.91110   0.94153   0.49644   1.000
    C42     C    0.47500   0.77758   0.90050   1.000
    C43     C    0.46746   0.90178   0.77102   1.000
    C44     C    0.46907   0.80636   0.80782   1.000
    C45     C    0.48029   0.84354   0.95549   1.000
    C46     C    0.47014   0.96831   0.82654   1.000
    C47     C    0.47830   0.93926   0.91764   1.000
    C48     C    0.90592   0.49063   0.78423   1.000
    C49     C    0.77047   0.49079   0.91146   1.000
    C50     C    0.81294   0.48731   0.81716   1.000
    C51     C    0.95721   0.49518   0.84658   1.000
    C52     C    0.82138   0.49586   0.97365   1.000
    C53     C    0.91463   0.49688   0.94222   1.000
loop_
    _geom_bond_atom_site_label_1
    _geom_bond_atom_site_label_2
    _geom_bond_distance
    _geom_bond_site_symmetry_2
    _ccdc_geom_bond_type
    H13    C45       1.08747  1_554   S
    C34    C35       1.40109      .   S
    C34    C31       1.39746      .   S
    C34    H8        1.08826  1_554   S
    C27    C29       1.40401      .   S
    C27    C24       1.39667      .   S
    C27    H4        1.08742  1_554   S
    H17    C52       1.08830  1_554   S
    C35    C33       1.41327      .   S
    C29    C28       1.39205      .   S
    C31    C32       1.39740      .   S
    C24    C26       1.40437      .   S
    C33    H7        1.08937  1_455   S
    C33    C30       1.40242      .   S
    C28    H5        1.08758  1_545   S
    C28    C25       1.39499      .   S
    C32    C30       1.40514      .   S
    C32    H15       1.08714      .   S
    C26    C25       1.39645      .   S
    C26    H12       1.08753      .   S
    H0     C38       1.08747      .   S
    C38    C37       1.40377      .   S
    C38    C36       1.39791      .   S
    C37    C40       1.39585      .   S
    C36    C39       1.39913      .   S
    C40    C41       1.40514      .   S
    C40    H11       1.08822  1_655   S
    C39    C41       1.39940      .   S
    C39    H10       1.08867  1_565   S
    H1     C21       1.08866  1_565   S
    C23    C21       1.39943      .   S
    C23    C22       1.40508      .   S
    C21    C18       1.39883      .   S
    H2     C22       1.08818  1_655   S
    C22    C19       1.39605      .   S
    C18    C20       1.39703      .   S
    C19    C20       1.40098      .   S
    C20    H9        1.09134      .   S
    H3     C44       1.08756      .   S
    H6     C50       1.08696      .   S
    C43    C44       1.39678      .   S
    C43    C46       1.39489      .   S
    C48    C50       1.40489      .   S
    C48    C51       1.40245      .   S
    H14    C46       1.08760  1_545   S
    C44    C42       1.40460      .   S
    C50    C49       1.39669      .   S
    H16    C51       1.08941  1_455   S
    C46    C47       1.39206      .   S
    C51    C53       1.41240      .   S
    C42    C45       1.39690      .   S
    C49    C52       1.39806      .   S
    C47    C45       1.40395      .   S
    C53    C52       1.40127      .   S
