# CIF file generated by openbabel 2.4.90, see http://openbabel.sf.net
data_I
_chemical_name_common ''
_cell_length_a 15.554
_cell_length_b 14.514
_cell_length_c 15.025
_cell_angle_alpha 80.01
_cell_angle_beta 74.318
_cell_angle_gamma 77.467
_space_group_name_H-M_alt 'P 1'
_space_group_name_Hall 'P 1'
loop_
    _symmetry_equiv_pos_as_xyz
    x,y,z
loop_
    _atom_site_label
    _atom_site_type_symbol
    _atom_site_fract_x
    _atom_site_fract_y
    _atom_site_fract_z
    _atom_site_occupancy
    Lv0     Lv   0.13490   0.50506   0.12459   1.000
    Lv1     Lv   0.86385   0.49298   0.87921   1.000
    Lv2     Lv   0.85818   0.87633   0.49291   1.000
    Lv3     Lv   0.14117   0.12132   0.50869   1.000
    Lv4     Lv   0.52593   0.12416   0.13759   1.000
    Lv5     Lv   0.47368   0.87276   0.86318   1.000
