# CIF file generated by openbabel 2.4.90, see http://openbabel.sf.net
data_I
_chemical_name_common ''
_cell_length_a 15.554
_cell_length_b 14.514
_cell_length_c 15.025
_cell_angle_alpha 80.01
_cell_angle_beta 74.318
_cell_angle_gamma 77.467
_space_group_name_H-M_alt 'P 1'
_space_group_name_Hall 'P 1'
loop_
    _symmetry_equiv_pos_as_xyz
    x,y,z
loop_
    _atom_site_label
    _atom_site_type_symbol
    _atom_site_fract_x
    _atom_site_fract_y
    _atom_site_fract_z
    _atom_site_occupancy
    N0      N    0.04128   0.98431   0.50052   1.000
    N1      N    0.51436   0.98356   0.03710   1.000
    N2      N    0.04214   0.49734   0.98923   1.000
    N3      N    0.95785   0.00000   0.50060   1.000
    N4      N    0.48542   0.00000   0.96393   1.000
    N5      N    0.95658   0.50084   0.00000   1.000
loop_
    _geom_bond_atom_site_label_1
    _geom_bond_atom_site_label_2
    _geom_bond_distance
    _geom_bond_site_symmetry_2
    _ccdc_geom_bond_type
    N5     N2        1.28717  1_654   S
    N1     N4        1.26416  1_564   S
    N0     N3        1.26766  1_465   S
