# CIF file generated by openbabel 2.4.90, see http://openbabel.sf.net
data_I
_chemical_name_common ''
_cell_length_a 15.554
_cell_length_b 14.514
_cell_length_c 15.025
_cell_angle_alpha 80.01
_cell_angle_beta 74.318
_cell_angle_gamma 77.467
_space_group_name_H-M_alt 'P 1'
_space_group_name_Hall 'P 1'
loop_
    _symmetry_equiv_pos_as_xyz
    x,y,z
loop_
    _atom_site_label
    _atom_site_type_symbol
    _atom_site_fract_x
    _atom_site_fract_y
    _atom_site_fract_z
    _atom_site_occupancy
    N0      N    0.13490   0.50506   0.12459   1.000
    N1      N    0.86385   0.49298   0.87921   1.000
    O2      O    0.04918   0.50064   0.03480   1.000
    N3      N    0.85818   0.87633   0.49291   1.000
    N4      N    0.14117   0.12132   0.50869   1.000
    O5      O    0.05125   0.03149   0.50313   1.000
    N6      N    0.52593   0.12416   0.13759   1.000
    N7      N    0.47368   0.87276   0.86318   1.000
    O8      O    0.51090   0.03206   0.04970   1.000
    Zr9     Zr   0.49947   0.49865   0.00106   1.000
    O10     O    0.35300   0.50232   0.05051   1.000
    O11     O    0.64584   0.49531   0.95242   1.000
    O12     O    0.51170   0.34802   0.05514   1.000
    O13     O    0.48752   0.64906   0.94625   1.000
    Zr14    Zr   0.99951   0.49877   0.50191   1.000
    O15     O    0.05582   0.34706   0.50609   1.000
    O16     O    0.94337   0.65051   0.49697   1.000
    O17     O    0.05163   0.50239   0.34992   1.000
    O18     O    0.94725   0.49535   0.65390   1.000
    Zr19    Zr   0.49974   0.99867   0.50036   1.000
    O20     O    0.51401   0.05019   0.35452   1.000
    O21     O    0.48551   0.94705   0.64624   1.000
    O22     O    0.35563   0.04791   0.50471   1.000
    O23     O    0.64382   0.94951   0.49628   1.000
loop_
    _geom_bond_atom_site_label_1
    _geom_bond_atom_site_label_2
    _geom_bond_distance
    _geom_bond_site_symmetry_2
    _ccdc_geom_bond_type
    N1     O2        4.20232  1_656   S
    N0     O2        2.15438      .   S
    N3     O5        4.17350  1_665   S
    N4     O5        2.13425      .   S
    N7     O8        4.15227  1_566   S
    N6     O8        2.12134      .   S
    Zr9    O10       2.18883      .   S
    N0     O10       3.26554      .   S
    Zr9    O11       2.18745  1_554   S
    N1     O11       3.26430      .   S
    Zr9    O12       2.18236      .   S
    N6     O12       3.25268      .   S
    Zr9    O13       2.18216  1_554   S
    N7     O13       3.25286      .   S
    Zr14   O15       2.18279  1_655   S
    N4     O15       3.25492      .   S
    Zr14   O16       2.18218      .   S
    N3     O16       3.25440      .   S
    Zr14   O17       2.20248  1_655   S
    N0     O17       3.27826      .   S
    Zr14   O18       2.20295      .   S
    N1     O18       3.27859      .   S
    Zr19   O20       2.15656  1_565   S
    N6     O20       3.21815      .   S
    Zr19   O21       2.15734      .   S
    N7     O21       3.21920      .   S
    Zr19   O22       2.18661  1_565   S
    N4     O22       3.26154      .   S
    Zr19   O23       2.18677      .   S
    N3     O23       3.26147      .   S
