# CIF file generated by openbabel 2.4.90, see http://openbabel.sf.net
data_I
_chemical_name_common ''
_cell_length_a 15.554
_cell_length_b 14.514
_cell_length_c 15.025
_cell_angle_alpha 80.01
_cell_angle_beta 74.318
_cell_angle_gamma 77.467
_space_group_name_H-M_alt 'P 1'
_space_group_name_Hall 'P 1'
loop_
    _symmetry_equiv_pos_as_xyz
    x,y,z
loop_
    _atom_site_label
    _atom_site_type_symbol
    _atom_site_fract_x
    _atom_site_fract_y
    _atom_site_fract_z
    _atom_site_occupancy
    C0      C    0.49420   0.91912   0.48652   1.000
    C1      C    0.49729   0.47992   0.92528   1.000
    C2      C    0.92754   0.48329   0.49451   1.000
    C3      C    0.50530   0.07820   0.51424   1.000
    C4      C    0.50144   0.51733   0.07713   1.000
    C5      C    0.07150   0.51413   0.50943   1.000
    C6      C    0.76409   0.76074   0.48532   1.000
    C7      C    0.20905   0.95018   0.50236   1.000
    C8      C    0.97870   0.17745   0.50583   1.000
    C9      C    0.46716   0.75427   0.76468   1.000
    C10     C    0.51304   0.17543   0.97401   1.000
    C11     C    0.53069   0.95434   0.20294   1.000
    C12     C    0.77364   0.48338   0.76854   1.000
    C13     C    0.96938   0.50037   0.18201   1.000
    C14     C    0.20965   0.49905   0.95656   1.000
    C15     C    0.23550   0.23639   0.51702   1.000
    C16     C    0.79022   0.04760   0.49784   1.000
    C17     C    0.02046   0.82057   0.49678   1.000
    C18     C    0.53217   0.24302   0.23580   1.000
    C19     C    0.48666   0.82104   0.02668   1.000
    C20     C    0.46905   0.04267   0.79821   1.000
    C21     C    0.22516   0.51450   0.23530   1.000
    C22     C    0.02935   0.49778   0.82178   1.000
    C23     C    0.78910   0.49898   0.04725   1.000
    C24     C    0.23279   0.08975   0.51006   1.000
    C25     C    0.10285   0.21752   0.51182   1.000
    C26     C    0.19432   0.18589   0.51300   1.000
    C27     C    0.17963   0.02512   0.50560   1.000
    C28     C    0.33093   0.05616   0.50882   1.000
    C29     C    0.04957   0.15314   0.50760   1.000
    C30     C    0.08811   0.05639   0.50488   1.000
    C31     C    0.93606   0.67629   0.49162   1.000
    C32     C    0.52453   0.21926   0.10007   1.000
    C33     C    0.53211   0.09541   0.22977   1.000
    C34     C    0.53040   0.19076   0.19278   1.000
    C35     C    0.51940   0.15311   0.04522   1.000
    C36     C    0.51935   0.32199   0.06165   1.000
    C37     C    0.52956   0.02865   0.17442   1.000
    C38     C    0.52144   0.05744   0.08328   1.000
    C39     C    0.47029   0.93442   0.67108   1.000
    C40     C    0.09284   0.50731   0.21960   1.000
    C41     C    0.22827   0.50721   0.09230   1.000
    C42     C    0.18583   0.51067   0.18666   1.000
    C43     C    0.04153   0.50294   0.15721   1.000
    C44     C    0.05238   0.50661   0.32295   1.000
    C45     C    0.17735   0.50220   0.03015   1.000
    C46     C    0.08409   0.50127   0.06150   1.000
    C47     C    0.67071   0.49117   0.94529   1.000
    C48     C    0.76667   0.90767   0.49105   1.000
    C49     C    0.89654   0.78004   0.49073   1.000
    C50     C    0.80516   0.81146   0.48825   1.000
    C51     C    0.81968   0.97260   0.49521   1.000
    C52     C    0.66859   0.94102   0.49188   1.000
    C53     C    0.94967   0.84470   0.49459   1.000
    C54     C    0.91110   0.94153   0.49644   1.000
    C55     C    0.06330   0.32121   0.51190   1.000
    C56     C    0.47500   0.77758   0.90050   1.000
    C57     C    0.46746   0.90178   0.77102   1.000
    C58     C    0.46907   0.80636   0.80782   1.000
    C59     C    0.48029   0.84354   0.95549   1.000
    C60     C    0.47991   0.67483   0.93889   1.000
    C61     C    0.47014   0.96831   0.82654   1.000
    C62     C    0.47830   0.93926   0.91764   1.000
    C63     C    0.52917   0.06308   0.32976   1.000
    C64     C    0.90592   0.49063   0.78423   1.000
    C65     C    0.77047   0.49079   0.91146   1.000
    C66     C    0.81294   0.48731   0.81716   1.000
    C67     C    0.95721   0.49518   0.84658   1.000
    C68     C    0.94631   0.49114   0.68090   1.000
    C69     C    0.82138   0.49586   0.97365   1.000
    C70     C    0.91463   0.49688   0.94222   1.000
    C71     C    0.32805   0.50665   0.05840   1.000
    C72     C    0.04128   0.98431   0.50052   1.000
    C73     C    0.51436   0.98356   0.03710   1.000
    C74     C    0.04214   0.49734   0.98923   1.000
    C75     C    0.95785   0.00000   0.50060   1.000
    C76     C    0.48542   0.00000   0.96393   1.000
    C77     C    0.95658   0.50084   0.00000   1.000
    C78     C    0.37428   0.11716   0.51962   1.000
    C79     C    0.88432   0.62157   0.48505   1.000
    C80     C    0.01778   0.65055   0.49990   1.000
    C81     C    0.36358   0.96935   0.49600   1.000
    C82     C    0.51838   0.37935   0.11773   1.000
    C83     C    0.46832   0.87352   0.62012   1.000
    C84     C    0.47785   0.02160   0.64427   1.000
    C85     C    0.51490   0.34430   0.97670   1.000
    C86     C    0.10452   0.51951   0.37094   1.000
    C87     C    0.63009   0.47566   0.88736   1.000
    C88     C    0.63402   0.50790   0.02900   1.000
    C89     C    0.97104   0.49197   0.35550   1.000
    C90     C    0.62527   0.87982   0.48140   1.000
    C91     C    0.11497   0.37569   0.51911   1.000
    C92     C    0.98161   0.34716   0.50352   1.000
    C93     C    0.63594   0.02796   0.50412   1.000
    C94     C    0.48006   0.61751   0.88310   1.000
    C95     C    0.53039   0.12430   0.38074   1.000
    C96     C    0.52226   0.97574   0.35654   1.000
    C97     C    0.48493   0.65248   0.02365   1.000
    C98     C    0.89440   0.47732   0.63310   1.000
    C99     C    0.36865   0.52316   0.11589   1.000
    C100    C    0.36476   0.48878   0.97473   1.000
    C101    C    0.02745   0.50636   0.64825   1.000
    O102    O    0.93560   0.49886   0.97111   1.000
    O103    O    0.99936   0.49909   0.99461   1.000
    O104    O    0.49319   0.58491   0.05039   1.000
    O105    O    0.48242   0.66366   0.98127   1.000
    O106    O    0.48348   0.83229   0.99108   1.000
    O107    O    0.56773   0.51262   0.05306   1.000
    O108    O    0.65237   0.49954   0.98714   1.000
    O109    O    0.13072   0.50174   0.04582   1.000
    O110    O    0.20281   0.50471   0.06122   1.000
    O111    O    0.19350   0.50063   0.99335   1.000
    O112    O    0.51790   0.02050   0.06019   1.000
    O113    O    0.49989   0.99178   0.00051   1.000
    O114    O    0.52042   0.10528   0.06425   1.000
    O115    O    0.52197   0.18619   0.07265   1.000
    O116    O    0.51622   0.16427   0.00962   1.000
    O117    O    0.80524   0.49742   0.01045   1.000
    O118    O    0.27816   0.50693   0.07535   1.000
    O119    O    0.34835   0.51491   0.08714   1.000
    O120    O    0.34640   0.49772   0.01656   1.000
    O121    O    0.06281   0.50211   0.10935   1.000
    O122    O    0.06312   0.49931   0.02536   1.000
    O123    O    0.52194   0.27063   0.08086   1.000
    O124    O    0.51887   0.35067   0.08969   1.000
    O125    O    0.51712   0.33315   0.01917   1.000
    O126    O    0.43505   0.52025   0.09651   1.000
    O127    O    0.50991   0.44834   0.09743   1.000
    O128    O    0.52550   0.04305   0.12885   1.000
    O129    O    0.20705   0.50894   0.13948   1.000
    O130    O    0.52747   0.20501   0.14642   1.000
    O131    O    0.00546   0.50166   0.16961   1.000
    O132    O    0.06719   0.50513   0.18840   1.000
    O133    O    0.53013   0.99149   0.18868   1.000
    O134    O    0.53084   0.06203   0.20209   1.000
    O135    O    0.13933   0.50899   0.20313   1.000
    O136    O    0.20549   0.51258   0.21098   1.000
    O137    O    0.53126   0.14308   0.21127   1.000
    O138    O    0.53129   0.21689   0.21429   1.000
    O139    O    0.07261   0.50696   0.27127   1.000
    O140    O    0.53064   0.07925   0.27976   1.000
    O141    O    0.01171   0.49929   0.33922   1.000
    O142    O    0.07845   0.51306   0.34694   1.000
    O143    O    0.52572   0.01941   0.34315   1.000
    O144    O    0.52978   0.09369   0.35525   1.000
    O145    O    0.94929   0.48763   0.42501   1.000
    O146    O    0.50823   0.94743   0.42153   1.000
    O147    O    0.08801   0.51682   0.44018   1.000
    O148    O    0.51785   0.10125   0.44749   1.000
    O149    O    0.55974   0.89947   0.48396   1.000
    O150    O    0.64693   0.91042   0.48664   1.000
    O151    O    0.91019   0.64893   0.48834   1.000
    O152    O    0.90593   0.55243   0.48978   1.000
    O153    O    0.78463   0.78610   0.48678   1.000
    O154    O    0.42889   0.94423   0.49126   1.000
    O155    O    0.48126   0.89632   0.55332   1.000
    O156    O    0.85085   0.79575   0.48949   1.000
    O157    O    0.78591   0.85957   0.48965   1.000
    O158    O    0.91630   0.72817   0.49118   1.000
    O159    O    0.92310   0.81237   0.49266   1.000
    O160    O    0.71763   0.92435   0.49146   1.000
    O161    O    0.79317   0.94014   0.49313   1.000
    O162    O    0.97692   0.66342   0.49576   1.000
    O163    O    0.65227   0.98449   0.49800   1.000
    O164    O    0.95457   0.41523   0.49901   1.000
    O165    O    0.91097   0.48031   0.56380   1.000
    O166    O    0.93038   0.89311   0.49551   1.000
    O167    O    0.98506   0.83264   0.49568   1.000
    O168    O    0.86539   0.95707   0.49582   1.000
    O169    O    0.80495   0.01010   0.49652   1.000
    O170    O    0.34725   0.01276   0.50241   1.000
    O171    O    0.93447   0.97076   0.49852   1.000
    O172    O    0.04464   0.58234   0.50467   1.000
    O173    O    0.99956   0.99216   0.50056   1.000
    O174    O    0.06470   0.02035   0.50270   1.000
    O175    O    0.19434   0.98765   0.50398   1.000
    O176    O    0.02245   0.33418   0.50771   1.000
    O177    O    0.57062   0.05308   0.50918   1.000
    O178    O    0.13387   0.04076   0.50524   1.000
    O179    O    0.06884   0.10476   0.50624   1.000
    O180    O    0.20621   0.05744   0.50783   1.000
    O181    O    0.01413   0.16530   0.50672   1.000
    O182    O    0.07621   0.18533   0.50971   1.000
    O183    O    0.28186   0.07296   0.50944   1.000
    O184    O    0.35260   0.08666   0.51422   1.000
    O185    O    0.09323   0.44491   0.51427   1.000
    O186    O    0.04947   0.51024   0.57884   1.000
    O187    O    0.21356   0.13782   0.51153   1.000
    O188    O    0.08308   0.26936   0.51186   1.000
    O189    O    0.14859   0.20171   0.51241   1.000
    O190    O    0.08914   0.34845   0.51550   1.000
    O191    O    0.21491   0.21114   0.51501   1.000
    O192    O    0.43979   0.09768   0.51693   1.000
    O193    O    0.49157   0.04990   0.57925   1.000
    O194    O    0.46931   0.90397   0.64560   1.000
    O195    O    0.92035   0.48423   0.65700   1.000
    O196    O    0.47407   0.97801   0.65767   1.000
    O197    O    0.98688   0.49875   0.66458   1.000
    O198    O    0.46887   0.91810   0.72105   1.000
    O199    O    0.92611   0.49088   0.73256   1.000
    O200    O    0.46812   0.78032   0.78625   1.000
    O201    O    0.79329   0.48535   0.79285   1.000
    O202    O    0.46827   0.85407   0.78942   1.000
    O203    O    0.46880   0.93504   0.79878   1.000
    O204    O    0.85943   0.48897   0.80069   1.000
    O205    O    0.93156   0.49291   0.81540   1.000
    O206    O    0.46960   0.00549   0.81237   1.000
    O207    O    0.47203   0.79197   0.85416   1.000
    O208    O    0.79170   0.48905   0.86431   1.000
    O209    O    0.99328   0.49648   0.83418   1.000
    O210    O    0.47422   0.95378   0.87209   1.000
    O211    O    0.93592   0.49603   0.89440   1.000
    O212    O    0.48867   0.54871   0.90419   1.000
    O213    O    0.47999   0.64617   0.91099   1.000
    O214    O    0.56369   0.47779   0.90632   1.000
    O215    O    0.65040   0.48341   0.91633   1.000
    O216    O    0.47745   0.72621   0.91969   1.000
    O217    O    0.47764   0.81056   0.92799   1.000
    O218    O    0.72059   0.49098   0.92837   1.000
    O219    O    0.79593   0.49332   0.94255   1.000
    O220    O    0.47930   0.89140   0.93656   1.000
    O221    O    0.48186   0.96963   0.94078   1.000
    O222    O    0.43102   0.48435   0.95000   1.000
    O223    O    0.50609   0.41211   0.95099   1.000
    O224    O    0.86801   0.49637   0.95793   1.000
    O225    O    0.49975   0.99866   0.50038   1.000
    O226    O    0.49936   0.49862   0.00120   1.000
    O227    O    0.99952   0.49871   0.50197   1.000
loop_
    _geom_bond_atom_site_label_1
    _geom_bond_atom_site_label_2
    _geom_bond_distance
    _geom_bond_site_symmetry_2
    _ccdc_geom_bond_type
    C77    O102      0.61695  1_554   S
    C70    O102      0.61695      .   S
    C77    O103      0.64359  1_554   S
    C74    O103      0.64359  1_455   S
    C97    O104      0.98812      .   S
    C4     O104      0.98812      .   S
    C97    O105      0.63887  1_554   S
    C60    O105      0.63887      .   S
    C19    O106      0.54374  1_554   S
    C59    O106      0.54374      .   S
    C88    O107      0.98738      .   S
    C4     O107      0.98738      .   S
    C88    O108      0.63727  1_554   S
    C47    O108      0.63727      .   S
    C45    O109      0.70054      .   S
    C46    O109      0.70054      .   S
    C45    O110      0.69873      .   S
    C41    O110      0.69873      .   S
    C45    O111      0.54413  1_554   S
    C14    O111      0.54413      .   S
    C73    O112      0.70606  1_565   S
    C38    O112      0.70606      .   S
    C73    O113      0.63208      .   S
    C76    O113      0.63208  1_546   S
    C35    O114      0.70200      .   S
    C38    O114      0.70200      .   S
    C35    O115      0.69833      .   S
    C32    O115      0.69833      .   S
    C35    O116      0.54371      .   S
    C10    O116      0.54371  1_556   S
    C23    O117      0.54415      .   S
    C69    O117      0.54415  1_556   S
    C71    O118      0.74775      .   S
    C41    O118      0.74775      .   S
    C71    O119      0.63931      .   S
    C99    O119      0.63931      .   S
    C71    O120      0.63924      .   S
    C100   O120      0.63924  1_556   S
    C46    O121      0.70663      .   S
    C43    O121      0.70663      .   S
    C46    O122      0.71220      .   S
    C74    O122      0.71220  1_556   S
    C36    O123      0.74786      .   S
    C32    O123      0.74786      .   S
    C36    O124      0.63921      .   S
    C82    O124      0.63921      .   S
    C36    O125      0.63902      .   S
    C85    O125      0.63902  1_556   S
    C4     O126      0.98780      .   S
    C99    O126      0.98780      .   S
    C4     O127      0.98570      .   S
    C82    O127      0.98570      .   S
    C38    O128      0.69602      .   S
    C37    O128      0.69602      .   S
    C41    O129      0.69870      .   S
    C42    O129      0.69870      .   S
    C32    O130      0.70218      .   S
    C34    O130      0.70218      .   S
    C43    O131      0.54469      .   S
    C13    O131      0.54469  1_655   S
    C43    O132      0.70121      .   S
    C40    O132      0.70121      .   S
    C37    O133      0.54379  1_545   S
    C11    O133      0.54379      .   S
    C37    O134      0.69749      .   S
    C33    O134      0.69749      .   S
    C42    O135      0.70257      .   S
    C40    O135      0.70257      .   S
    C42    O136      0.54357      .   S
    C21    O136      0.54357      .   S
    C34    O137      0.69822      .   S
    C33    O137      0.69822      .   S
    C34    O138      0.54377      .   S
    C18    O138      0.54377      .   S
    C40    O139      0.75440      .   S
    C44    O139      0.75440      .   S
    C33    O140      0.74277      .   S
    C63    O140      0.74277      .   S
    C44    O141      0.63856      .   S
    C89    O141      0.63856  1_655   S
    C44    O142      0.64065      .   S
    C86    O142      0.64065      .   S
    C63    O143      0.64016      .   S
    C96    O143      0.64016  1_565   S
    C63    O144      0.63793      .   S
    C95    O144      0.63793      .   S
    C89    O145      1.00222      .   S
    C2     O145      1.00222      .   S
    C96    O146      0.97698      .   S
    C0     O146      0.97698      .   S
    C86    O147      0.99786      .   S
    C5     O147      0.99786      .   S
    C95    O148      0.98081      .   S
    C3     O148      0.98081      .   S
    C90    O149      0.98909      .   S
    C0     O149      0.98909      .   S
    C90    O150      0.63901      .   S
    C52    O150      0.63901      .   S
    C79    O151      0.63951      .   S
    C31    O151      0.63951      .   S
    C79    O152      0.98326      .   S
    C2     O152      0.98326      .   S
    C6     O153      0.54373      .   S
    C50    O153      0.54373      .   S
    C0     O154      0.98946      .   S
    C81    O154      0.98946      .   S
    C0     O155      0.98074      .   S
    C83    O155      0.98074      .   S
    C50    O156      0.70188      .   S
    C49    O156      0.70188      .   S
    C50    O157      0.69895      .   S
    C48    O157      0.69895      .   S
    C49    O158      0.74857      .   S
    C31    O158      0.74857      .   S
    C49    O159      0.69792      .   S
    C53    O159      0.69792      .   S
    C48    O160      0.74712      .   S
    C52    O160      0.74712      .   S
    C48    O161      0.69956      .   S
    C51    O161      0.69956      .   S
    C31    O162      0.63912      .   S
    C80    O162      0.63912  1_455   S
    C52    O163      0.63953      .   S
    C93    O163      0.63953  1_545   S
    C2     O164      0.98452      .   S
    C92    O164      0.98452      .   S
    C2     O165      0.99822      .   S
    C98    O165      0.99822      .   S
    C53    O166      0.70257      .   S
    C54    O166      0.70257      .   S
    C53    O167      0.54411      .   S
    C17    O167      0.54411  1_455   S
    C51    O168      0.69970      .   S
    C54    O168      0.69970      .   S
    C51    O169      0.54434  1_565   S
    C16    O169      0.54434      .   S
    C81    O170      0.63957  1_565   S
    C28    O170      0.63957      .   S
    C54    O171      0.62523      .   S
    C75    O171      0.62523  1_545   S
    C80    O172      0.98579      .   S
    C5     O172      0.98579      .   S
    C72    O173      0.63383  1_455   S
    C75    O173      0.63383  1_545   S
    C72    O174      0.70881  1_565   S
    C30    O174      0.70881      .   S
    C7     O175      0.54433      .   S
    C27    O175      0.54433  1_545   S
    C92    O176      0.63927  1_655   S
    C55    O176      0.63927      .   S
    C93    O177      0.98891      .   S
    C3     O177      0.98891      .   S
    C30    O178      0.69972      .   S
    C27    O178      0.69972      .   S
    C30    O179      0.70254      .   S
    C29    O179      0.70254      .   S
    C27    O180      0.69942      .   S
    C24    O180      0.69942      .   S
    C8     O181      0.54409  1_655   S
    C29    O181      0.54409      .   S
    C29    O182      0.69802      .   S
    C25    O182      0.69802      .   S
    C28    O183      0.74709      .   S
    C24    O183      0.74709      .   S
    C28    O184      0.63894      .   S
    C78    O184      0.63894      .   S
    C5     O185      0.98458      .   S
    C91    O185      0.98458      .   S
    C5     O186      1.00149      .   S
    C101   O186      1.00149      .   S
    C24    O187      0.69851      .   S
    C26    O187      0.69851      .   S
    C25    O188      0.74860      .   S
    C55    O188      0.74860      .   S
    C25    O189      0.70049      .   S
    C26    O189      0.70049      .   S
    C55    O190      0.63946      .   S
    C91    O190      0.63946      .   S
    C26    O191      0.54567      .   S
    C15    O191      0.54567      .   S
    C3     O192      0.98817      .   S
    C78    O192      0.98817      .   S
    C3     O193      0.97704      .   S
    C84    O193      0.97704      .   S
    C83    O194      0.63790      .   S
    C39    O194      0.63790      .   S
    C98    O195      0.64064      .   S
    C68    O195      0.64064      .   S
    C84    O196      0.64020  1_545   S
    C39    O196      0.64020      .   S
    C101   O197      0.63856  1_455   S
    C68    O197      0.63856      .   S
    C39    O198      0.74291      .   S
    C57    O198      0.74291      .   S
    C68    O199      0.75430      .   S
    C64    O199      0.75430      .   S
    C9     O200      0.54378      .   S
    C58    O200      0.54378      .   S
    C12    O201      0.54348      .   S
    C66    O201      0.54348      .   S
    C57    O202      0.69839      .   S
    C58    O202      0.69839      .   S
    C57    O203      0.69744      .   S
    C61    O203      0.69744      .   S
    C64    O204      0.70244      .   S
    C66    O204      0.70244      .   S
    C64    O205      0.70123      .   S
    C67    O205      0.70123      .   S
    C20    O206      0.54380      .   S
    C61    O206      0.54380  1_565   S
    C58    O207      0.70230      .   S
    C56    O207      0.70230      .   S
    C66    O208      0.69835      .   S
    C65    O208      0.69835      .   S
    C22    O209      0.54470  1_455   S
    C67    O209      0.54470      .   S
    C61    O210      0.69603      .   S
    C62    O210      0.69603      .   S
    C67    O211      0.70620      .   S
    C70    O211      0.70620      .   S
    C94    O212      0.98513      .   S
    C1     O212      0.98513      .   S
    C94    O213      0.63932      .   S
    C60    O213      0.63932      .   S
    C87    O214      0.98944      .   S
    C1     O214      0.98944      .   S
    C87    O215      0.63923      .   S
    C47    O215      0.63923      .   S
    C56    O216      0.74809      .   S
    C60    O216      0.74809      .   S
    C56    O217      0.69845      .   S
    C59    O217      0.69845      .   S
    C65    O218      0.74780      .   S
    C47    O218      0.74780      .   S
    C65    O219      0.69903      .   S
    C69    O219      0.69903      .   S
    C62    O220      0.70198      .   S
    C59    O220      0.70198      .   S
    C62    O221      0.62650      .   S
    C76    O221      0.62650  1_545   S
    C1     O222      0.98845      .   S
    C100   O222      0.98845      .   S
    C1     O223      0.98729      .   S
    C85    O223      0.98729      .   S
    C70    O224      0.70063      .   S
    C69    O224      0.70063      .   S
    C0     O225      1.23285      .   S
    C3     O225      1.23285  1_545   S
    C1     O226      1.22771  1_556   S
    C4     O226      1.22771      .   S
    C2     O227      1.22530      .   S
    C5     O227      1.22530  1_455   S
