# CIF file generated by openbabel 2.4.90, see http://openbabel.sf.net
data_I
_chemical_name_common ''
_cell_length_a 15.554
_cell_length_b 14.514
_cell_length_c 15.025
_cell_angle_alpha 80.01
_cell_angle_beta 74.318
_cell_angle_gamma 77.467
_space_group_name_H-M_alt 'P 1'
_space_group_name_Hall 'P 1'
loop_
    _symmetry_equiv_pos_as_xyz
    x,y,z
loop_
    _atom_site_label
    _atom_site_type_symbol
    _atom_site_fract_x
    _atom_site_fract_y
    _atom_site_fract_z
    _atom_site_occupancy
    Zr0     Zr   0.49420   0.91912   0.48652   1.000
    Zr1     Zr   0.49729   0.47992   0.92528   1.000
    Zr2     Zr   0.92754   0.48329   0.49451   1.000
    Zr3     Zr   0.50530   0.07820   0.51424   1.000
    Zr4     Zr   0.50144   0.51733   0.07713   1.000
    Zr5     Zr   0.07150   0.51413   0.50943   1.000
    Zr6     Zr   0.33093   0.05616   0.50882   1.000
    Zr7     Zr   0.93606   0.67629   0.49162   1.000
    Zr8     Zr   0.51935   0.32199   0.06165   1.000
    Zr9     Zr   0.47029   0.93442   0.67108   1.000
    Zr10    Zr   0.05238   0.50661   0.32295   1.000
    Zr11    Zr   0.67071   0.49117   0.94529   1.000
    Zr12    Zr   0.66859   0.94102   0.49188   1.000
    Zr13    Zr   0.06330   0.32121   0.51190   1.000
    Zr14    Zr   0.47991   0.67483   0.93889   1.000
    Zr15    Zr   0.52917   0.06308   0.32976   1.000
    Zr16    Zr   0.94631   0.49114   0.68090   1.000
    Zr17    Zr   0.32805   0.50665   0.05840   1.000
    Zr18    Zr   0.37428   0.11716   0.51962   1.000
    Zr19    Zr   0.88432   0.62157   0.48505   1.000
    Zr20    Zr   0.01778   0.65055   0.49990   1.000
    Zr21    Zr   0.36358   0.96935   0.49600   1.000
    Zr22    Zr   0.51838   0.37935   0.11773   1.000
    Zr23    Zr   0.46832   0.87352   0.62012   1.000
    Zr24    Zr   0.47785   0.02160   0.64427   1.000
    Zr25    Zr   0.51490   0.34430   0.97670   1.000
    Zr26    Zr   0.10452   0.51951   0.37094   1.000
    Zr27    Zr   0.63009   0.47566   0.88736   1.000
    Zr28    Zr   0.63402   0.50790   0.02900   1.000
    Zr29    Zr   0.97104   0.49197   0.35550   1.000
    Zr30    Zr   0.62527   0.87982   0.48140   1.000
    Zr31    Zr   0.11497   0.37569   0.51911   1.000
    Zr32    Zr   0.98161   0.34716   0.50352   1.000
    Zr33    Zr   0.63594   0.02796   0.50412   1.000
    Zr34    Zr   0.48006   0.61751   0.88310   1.000
    Zr35    Zr   0.53039   0.12430   0.38074   1.000
    Zr36    Zr   0.52226   0.97574   0.35654   1.000
    Zr37    Zr   0.48493   0.65248   0.02365   1.000
    Zr38    Zr   0.89440   0.47732   0.63310   1.000
    Zr39    Zr   0.36865   0.52316   0.11589   1.000
    Zr40    Zr   0.36476   0.48878   0.97473   1.000
    Zr41    Zr   0.02745   0.50636   0.64825   1.000
    O42     O    0.49319   0.58491   0.05039   1.000
    O43     O    0.48242   0.66366   0.98127   1.000
    O44     O    0.56773   0.51262   0.05306   1.000
    O45     O    0.65237   0.49954   0.98714   1.000
    O46     O    0.34835   0.51491   0.08714   1.000
    O47     O    0.34640   0.49772   0.01656   1.000
    O48     O    0.51887   0.35067   0.08969   1.000
    O49     O    0.51712   0.33315   0.01917   1.000
    O50     O    0.43505   0.52025   0.09651   1.000
    O51     O    0.50991   0.44834   0.09743   1.000
    O52     O    0.01171   0.49929   0.33922   1.000
    O53     O    0.07845   0.51306   0.34694   1.000
    O54     O    0.52572   0.01941   0.34315   1.000
    O55     O    0.52978   0.09369   0.35525   1.000
    O56     O    0.94929   0.48763   0.42501   1.000
    O57     O    0.50823   0.94743   0.42153   1.000
    O58     O    0.08801   0.51682   0.44018   1.000
    O59     O    0.51785   0.10125   0.44749   1.000
    O60     O    0.55974   0.89947   0.48396   1.000
    O61     O    0.64693   0.91042   0.48664   1.000
    O62     O    0.91019   0.64893   0.48834   1.000
    O63     O    0.90593   0.55243   0.48978   1.000
    O64     O    0.42889   0.94423   0.49126   1.000
    O65     O    0.48126   0.89632   0.55332   1.000
    O66     O    0.97692   0.66342   0.49576   1.000
    O67     O    0.65227   0.98449   0.49800   1.000
    O68     O    0.95457   0.41523   0.49901   1.000
    O69     O    0.91097   0.48031   0.56380   1.000
    O70     O    0.34725   0.01276   0.50241   1.000
    O71     O    0.04464   0.58234   0.50467   1.000
    O72     O    0.02245   0.33418   0.50771   1.000
    O73     O    0.57062   0.05308   0.50918   1.000
    O74     O    0.35260   0.08666   0.51422   1.000
    O75     O    0.09323   0.44491   0.51427   1.000
    O76     O    0.04947   0.51024   0.57884   1.000
    O77     O    0.08914   0.34845   0.51550   1.000
    O78     O    0.43979   0.09768   0.51693   1.000
    O79     O    0.49157   0.04990   0.57925   1.000
    O80     O    0.46931   0.90397   0.64560   1.000
    O81     O    0.92035   0.48423   0.65700   1.000
    O82     O    0.47407   0.97801   0.65767   1.000
    O83     O    0.98688   0.49875   0.66458   1.000
    O84     O    0.48867   0.54871   0.90419   1.000
    O85     O    0.47999   0.64617   0.91099   1.000
    O86     O    0.56369   0.47779   0.90632   1.000
    O87     O    0.65040   0.48341   0.91633   1.000
    O88     O    0.43102   0.48435   0.95000   1.000
    O89     O    0.50609   0.41211   0.95099   1.000
    O90     O    0.49975   0.99866   0.50038   1.000
    O91     O    0.49936   0.49862   0.00120   1.000
    O92     O    0.99952   0.49871   0.50197   1.000
    N93     N    0.13490   0.50506   0.12459   1.000
    O94     O    0.20653   0.50599   0.09997   1.000
    O95     O    0.10376   0.50601   0.19793   1.000
    N96     N    0.86385   0.49298   0.87921   1.000
    O97     O    0.79222   0.49198   0.90379   1.000
    O98     O    0.89498   0.49193   0.80589   1.000
    O99     O    0.04918   0.50064   0.03480   1.000
    N100    N    0.85818   0.87633   0.49291   1.000
    O101    O    0.78790   0.90034   0.49219   1.000
    O102    O    0.88724   0.80225   0.49204   1.000
    N103    N    0.14117   0.12132   0.50869   1.000
    O104    O    0.21151   0.09714   0.50906   1.000
    O105    O    0.11212   0.19534   0.51027   1.000
    O106    O    0.05125   0.03149   0.50313   1.000
    N107    N    0.52593   0.12416   0.13759   1.000
    O108    O    0.52393   0.19739   0.10922   1.000
    O109    O    0.52829   0.10170   0.20868   1.000
    N110    N    0.47368   0.87276   0.86318   1.000
    O111    O    0.47128   0.89543   0.79211   1.000
    O112    O    0.47557   0.79948   0.89144   1.000
    O113    O    0.51090   0.03206   0.04970   1.000
loop_
    _geom_bond_atom_site_label_1
    _geom_bond_atom_site_label_2
    _geom_bond_distance
    _geom_bond_site_symmetry_2
    _ccdc_geom_bond_type
    Zr37   O42       0.98812      .   S
    Zr4    O42       0.98812      .   S
    Zr37   O43       0.63887  1_554   S
    Zr14   O43       0.63887      .   S
    Zr28   O44       0.98738      .   S
    Zr4    O44       0.98738      .   S
    Zr28   O45       0.63727  1_554   S
    Zr11   O45       0.63727      .   S
    Zr17   O46       0.63931      .   S
    Zr39   O46       0.63931      .   S
    Zr17   O47       0.63924      .   S
    Zr40   O47       0.63924  1_556   S
    Zr8    O48       0.63921      .   S
    Zr22   O48       0.63921      .   S
    Zr8    O49       0.63902      .   S
    Zr25   O49       0.63902  1_556   S
    Zr4    O50       0.98780      .   S
    Zr39   O50       0.98780      .   S
    Zr4    O51       0.98570      .   S
    Zr22   O51       0.98570      .   S
    Zr10   O52       0.63856      .   S
    Zr29   O52       0.63856  1_655   S
    Zr10   O53       0.64065      .   S
    Zr26   O53       0.64065      .   S
    Zr15   O54       0.64016      .   S
    Zr36   O54       0.64016  1_565   S
    Zr15   O55       0.63793      .   S
    Zr35   O55       0.63793      .   S
    Zr29   O56       1.00222      .   S
    Zr2    O56       1.00222      .   S
    Zr36   O57       0.97698      .   S
    Zr0    O57       0.97698      .   S
    Zr26   O58       0.99786      .   S
    Zr5    O58       0.99786      .   S
    Zr35   O59       0.98081      .   S
    Zr3    O59       0.98081      .   S
    Zr30   O60       0.98909      .   S
    Zr0    O60       0.98909      .   S
    Zr30   O61       0.63901      .   S
    Zr12   O61       0.63901      .   S
    Zr19   O62       0.63951      .   S
    Zr7    O62       0.63951      .   S
    Zr19   O63       0.98326      .   S
    Zr2    O63       0.98326      .   S
    Zr0    O64       0.98946      .   S
    Zr21   O64       0.98946      .   S
    Zr0    O65       0.98074      .   S
    Zr23   O65       0.98074      .   S
    Zr7    O66       0.63912      .   S
    Zr20   O66       0.63912  1_455   S
    Zr12   O67       0.63953      .   S
    Zr33   O67       0.63953  1_545   S
    Zr2    O68       0.98452      .   S
    Zr32   O68       0.98452      .   S
    Zr2    O69       0.99822      .   S
    Zr38   O69       0.99822      .   S
    Zr21   O70       0.63957  1_565   S
    Zr6    O70       0.63957      .   S
    Zr20   O71       0.98579      .   S
    Zr5    O71       0.98579      .   S
    Zr32   O72       0.63927  1_655   S
    Zr13   O72       0.63927      .   S
    Zr33   O73       0.98891      .   S
    Zr3    O73       0.98891      .   S
    Zr6    O74       0.63894      .   S
    Zr18   O74       0.63894      .   S
    Zr5    O75       0.98458      .   S
    Zr31   O75       0.98458      .   S
    Zr5    O76       1.00149      .   S
    Zr41   O76       1.00149      .   S
    Zr13   O77       0.63946      .   S
    Zr31   O77       0.63946      .   S
    Zr3    O78       0.98817      .   S
    Zr18   O78       0.98817      .   S
    Zr3    O79       0.97704      .   S
    Zr24   O79       0.97704      .   S
    Zr23   O80       0.63790      .   S
    Zr9    O80       0.63790      .   S
    Zr38   O81       0.64064      .   S
    Zr16   O81       0.64064      .   S
    Zr24   O82       0.64020  1_545   S
    Zr9    O82       0.64020      .   S
    Zr41   O83       0.63856  1_455   S
    Zr16   O83       0.63856      .   S
    Zr34   O84       0.98513      .   S
    Zr1    O84       0.98513      .   S
    Zr34   O85       0.63932      .   S
    Zr14   O85       0.63932      .   S
    Zr27   O86       0.98944      .   S
    Zr1    O86       0.98944      .   S
    Zr27   O87       0.63923      .   S
    Zr11   O87       0.63923      .   S
    Zr1    O88       0.98845      .   S
    Zr40   O88       0.98845      .   S
    Zr1    O89       0.98729      .   S
    Zr25   O89       0.98729      .   S
    Zr0    O90       1.23285      .   S
    Zr3    O90       1.23285  1_545   S
    Zr1    O91       1.22771  1_556   S
    Zr4    O91       1.22771      .   S
    Zr2    O92       1.22530      .   S
    Zr5    O92       1.22530  1_455   S
    N93    O94       1.07718      .   S
    Zr17   O94       1.82486      .   S
    N93    O95       1.07844      .   S
    Zr10   O95       1.83256      .   S
    N96    O97       1.07728      .   S
    Zr11   O97       1.82502      .   S
    N96    O98       1.07823      .   S
    Zr16   O98       1.83224      .   S
    N96    O99       4.20232  1_656   S
    N93    O99       2.15438      .   S
    N100   O101      1.07520      .   S
    Zr12   O101      1.82225      .   S
    N100   O102      1.07296      .   S
    Zr7    O102      1.82143      .   S
    N103   O104      1.07535      .   S
    Zr6    O104      1.82238      .   S
    N103   O105      1.07301      .   S
    Zr13   O105      1.82151      .   S
    N100   O106      4.17350  1_665   S
    N103   O106      2.13425      .   S
    N107   O108      1.07146      .   S
    Zr8    O108      1.81919      .   S
    N107   O109      1.06940      .   S
    Zr15   O109      1.81123      .   S
    N110   O111      1.06960      .   S
    Zr9    O111      1.81157      .   S
    N110   O112      1.07179      .   S
    Zr14   O112      1.81976      .   S
    N110   O113      4.15227  1_566   S
    N107   O113      2.12134      .   S
