# CIF file generated by openbabel 2.4.90, see http://openbabel.sf.net
data_I
_chemical_name_common ''
_cell_length_a 18.425
_cell_length_b 18.43
_cell_length_c 18.431
_cell_angle_alpha 60.151
_cell_angle_beta 60.163
_cell_angle_gamma 60.161
_space_group_name_H-M_alt 'P 1'
_space_group_name_Hall 'P 1'
loop_
    _symmetry_equiv_pos_as_xyz
    x,y,z
loop_
    _atom_site_label
    _atom_site_type_symbol
    _atom_site_fract_x
    _atom_site_fract_y
    _atom_site_fract_z
    _atom_site_occupancy
    N0      N    0.49998   0.99999   0.99990   1.000
    N1      N    0.99998   0.49999   0.49998   1.000
    N2      N    0.49998   0.49999   0.99999   1.000
    N3      N    0.99998   0.49999   1.00000   1.000
    N4      N    0.49998   0.99999   0.49999   1.000
    N5      N    0.99998   0.99999   0.49999   1.000
    Zr6     Zr   0.24996   0.24997   0.24950   1.000
    O7      O    0.14555   0.35437   0.14531   1.000
    O8      O    0.35440   0.14558   0.35304   1.000
    O9      O    0.35437   0.14555   0.14528   1.000
    O10     O    0.35440   0.35441   0.14535   1.000
    O11     O    0.14555   0.14554   0.35412   1.000
    O12     O    0.14557   0.35440   0.35418   1.000
    Zr13    Zr   0.75000   0.75002   0.75000   1.000
    O14     O    0.85442   0.85444   0.64561   1.000
    O15     O    0.64556   0.85441   0.64546   1.000
    O16     O    0.85442   0.64562   0.85444   1.000
    O17     O    0.85440   0.64559   0.64556   1.000
    O18     O    0.64557   0.64558   0.85440   1.000
    O19     O    0.64560   0.85444   0.85442   1.000
loop_
    _geom_bond_atom_site_label_1
    _geom_bond_atom_site_label_2
    _geom_bond_distance
    _geom_bond_site_symmetry_2
    _ccdc_geom_bond_type
    Zr6    O7        2.72133      .   S
    N3     O7        3.79464  1_656   S
    Zr6    O8        2.71318      .   S
    N4     O8        3.81614  1_565   S
    Zr6    O9        2.72258      .   S
    N0     O9        3.79664  1_566   S
    Zr6    O10       2.72481      .   S
    N2     O10       3.79843  1_556   S
    Zr6    O11       2.72433      .   S
    N5     O11       3.79772  1_665   S
    Zr6    O12       2.72873      .   S
    N1     O12       3.80258  1_655   S
    Zr13   O14       2.72431      .   S
    N5     O14       3.79771      .   S
    Zr13   O15       2.72629      .   S
    N4     O15       3.79673      .   S
    Zr13   O16       2.72447      .   S
    N3     O16       3.79778      .   S
    Zr13   O17       2.72567      .   S
    N1     O17       3.79962      .   S
    Zr13   O18       2.72482      .   S
    N2     O18       3.79844      .   S
    Zr13   O19       2.72508      .   S
    N0     O19       3.79785      .   S
