# CIF file generated by openbabel 2.4.90, see http://openbabel.sf.net
data_I
_chemical_name_common ''
_cell_length_a 18.425
_cell_length_b 18.43
_cell_length_c 18.431
_cell_angle_alpha 60.151
_cell_angle_beta 60.163
_cell_angle_gamma 60.161
_space_group_name_H-M_alt 'P 1'
_space_group_name_Hall 'P 1'
loop_
    _symmetry_equiv_pos_as_xyz
    x,y,z
loop_
    _atom_site_label
    _atom_site_type_symbol
    _atom_site_fract_x
    _atom_site_fract_y
    _atom_site_fract_z
    _atom_site_occupancy
    Zr0     Zr   0.29335   0.29329   0.11953   1.000
    Zr1     Zr   0.29363   0.29367   0.29364   1.000
    Zr2     Zr   0.11953   0.29335   0.29332   1.000
    Zr3     Zr   0.29336   0.11955   0.29326   1.000
    Zr4     Zr   0.70662   0.70670   0.88040   1.000
    Zr5     Zr   0.70633   0.70632   0.70635   1.000
    Zr6     Zr   0.70661   0.88044   0.70673   1.000
    Zr7     Zr   0.88044   0.70664   0.70666   1.000
    Zr8     Zr   0.38900   0.38905   0.11107   1.000
    Zr9     Zr   0.11094   0.11091   0.38879   1.000
    Zr10    Zr   0.38883   0.11093   0.11087   1.000
    Zr11    Zr   0.11105   0.38902   0.38905   1.000
    Zr12    Zr   0.38904   0.11109   0.38000   1.000
    Zr13    Zr   0.11094   0.38882   0.11090   1.000
    Zr14    Zr   0.61097   0.61094   0.88890   1.000
    Zr15    Zr   0.88902   0.88908   0.61119   1.000
    Zr16    Zr   0.88903   0.61117   0.88909   1.000
    Zr17    Zr   0.61092   0.88890   0.61000   1.000
    Zr18    Zr   0.88891   0.61097   0.61093   1.000
    Zr19    Zr   0.61115   0.88905   0.88912   1.000
    Zr20    Zr   0.25001   0.25001   0.24990   1.000
    Zr21    Zr   0.74996   0.74998   0.75000   1.000
    Zr22    Zr   0.36674   0.36685   0.07146   1.000
    Zr23    Zr   0.36704   0.36708   0.19486   1.000
    Zr24    Zr   0.07135   0.19469   0.36657   1.000
    Zr25    Zr   0.19474   0.07131   0.36660   1.000
    Zr26    Zr   0.36668   0.07134   0.19465   1.000
    Zr27    Zr   0.36665   0.19472   0.07127   1.000
    Zr28    Zr   0.07142   0.36683   0.36600   1.000
    Zr29    Zr   0.19487   0.36703   0.36710   1.000
    Zr30    Zr   0.36719   0.19489   0.36691   1.000
    Zr31    Zr   0.36671   0.07148   0.36686   1.000
    Zr32    Zr   0.07135   0.36656   0.19467   1.000
    Zr33    Zr   0.19473   0.36676   0.07130   1.000
    Zr34    Zr   0.63322   0.63314   0.92852   1.000
    Zr35    Zr   0.63293   0.63291   0.80512   1.000
    Zr36    Zr   0.80523   0.92868   0.63331   1.000
    Zr37    Zr   0.92862   0.80530   0.63342   1.000
    Zr38    Zr   0.92862   0.63343   0.80531   1.000
    Zr39    Zr   0.80524   0.63323   0.92869   1.000
    Zr40    Zr   0.63326   0.92851   0.63312   1.000
    Zr41    Zr   0.63279   0.80510   0.63307   1.000
    Zr42    Zr   0.80509   0.63295   0.63289   1.000
    Zr43    Zr   0.92854   0.63316   0.63320   1.000
    Zr44    Zr   0.63328   0.92864   0.80534   1.000
    Zr45    Zr   0.63330   0.80527   0.92872   1.000
    O46     O    0.37774   0.15283   0.09107   1.000
    O47     O    0.33000   0.24401   0.09540   1.000
    O48     O    0.15283   0.37779   0.09110   1.000
    O49     O    0.24404   0.33003   0.09541   1.000
    O50     O    0.37787   0.37795   0.09126   1.000
    O51     O    0.33004   0.33007   0.09550   1.000
    O52     O    0.37775   0.09114   0.15276   1.000
    O53     O    0.09114   0.37769   0.15279   1.000
    O54     O    0.37802   0.37806   0.15297   1.000
    O55     O    0.27168   0.27165   0.18472   1.000
    O56     O    0.33002   0.09545   0.24396   1.000
    O57     O    0.09544   0.32996   0.24399   1.000
    O58     O    0.33034   0.33037   0.24425   1.000
    O59     O    0.27169   0.18478   0.27158   1.000
    O60     O    0.24405   0.09543   0.32993   1.000
    O61     O    0.33003   0.09551   0.33006   1.000
    O62     O    0.09548   0.33009   0.32966   1.000
    O63     O    0.09544   0.24402   0.32995   1.000
    O64     O    0.33041   0.24428   0.33028   1.000
    O65     O    0.24425   0.33035   0.33037   1.000
    O66     O    0.09124   0.37792   0.37753   1.000
    O67     O    0.09115   0.15280   0.37768   1.000
    O68     O    0.15284   0.09111   0.37770   1.000
    O69     O    0.37788   0.09128   0.37343   1.000
    O70     O    0.37811   0.15299   0.37346   1.000
    O71     O    0.15296   0.37803   0.37808   1.000
    O72     O    0.62185   0.84700   0.62154   1.000
    O73     O    0.62209   0.90870   0.62156   1.000
    O74     O    0.84700   0.62196   0.62191   1.000
    O75     O    0.90873   0.62206   0.62206   1.000
    O76     O    0.84713   0.90888   0.62225   1.000
    O77     O    0.90882   0.84719   0.62230   1.000
    O78     O    0.75571   0.66963   0.66962   1.000
    O79     O    0.66956   0.75571   0.66971   1.000
    O80     O    0.66993   0.90447   0.66993   1.000
    O81     O    0.90449   0.66990   0.66993   1.000
    O82     O    0.75592   0.90456   0.67002   1.000
    O83     O    0.90453   0.75597   0.67004   1.000
    O84     O    0.66963   0.66961   0.75574   1.000
    O85     O    0.90453   0.67003   0.75599   1.000
    O86     O    0.72828   0.81521   0.72837   1.000
    O87     O    0.66995   0.90454   0.75604   1.000
    O88     O    0.72829   0.72834   0.81520   1.000
    O89     O    0.62195   0.62192   0.84701   1.000
    O90     O    0.90882   0.62230   0.84720   1.000
    O91     O    0.62221   0.90885   0.84723   1.000
    O92     O    0.66992   0.66992   0.90446   1.000
    O93     O    0.75593   0.66996   0.90455   1.000
    O94     O    0.66996   0.75598   0.90456   1.000
    O95     O    0.62210   0.62204   0.90871   1.000
    O96     O    0.84713   0.62220   0.90889   1.000
    O97     O    0.62223   0.84716   0.90892   1.000
    O98     O    0.27182   0.27184   0.27177   1.000
    O99     O    0.18477   0.27168   0.27161   1.000
    O100    O    0.72814   0.72815   0.72818   1.000
    O101    O    0.81520   0.72831   0.72833   1.000
    N102    N    0.49998   0.99999   0.99990   1.000
    O103    O    0.54120   0.95885   0.95883   1.000
    O104    O    0.45877   0.04114   0.04106   1.000
    N105    N    0.99998   0.49999   0.49998   1.000
    O106    O    0.04118   0.45884   0.45885   1.000
    O107    O    0.95879   0.54115   0.54112   1.000
    N108    N    0.49998   0.49999   0.99999   1.000
    O109    O    0.54114   0.54114   0.95879   1.000
    O110    O    0.45883   0.45885   0.04119   1.000
    N111    N    0.99998   0.49999   1.00000   1.000
    O112    O    0.04113   0.45877   0.04112   1.000
    O113    O    0.95884   0.54121   0.95887   1.000
    N114    N    0.49998   0.99999   0.49999   1.000
    O115    O    0.45884   0.04120   0.45658   1.000
    O116    O    0.54112   0.95879   0.54091   1.000
    N117    N    0.99998   0.99999   0.49999   1.000
    O118    O    0.04113   0.04112   0.45874   1.000
    O119    O    0.95883   0.95886   0.54122   1.000
loop_
    _geom_bond_atom_site_label_1
    _geom_bond_atom_site_label_2
    _geom_bond_distance
    _geom_bond_site_symmetry_2
    _ccdc_geom_bond_type
    Zr27   O46       0.63858      .   S
    Zr10   O46       0.63858      .   S
    Zr27   O47       0.98578      .   S
    Zr0    O47       0.98578      .   S
    Zr33   O48       0.63855      .   S
    Zr13   O48       0.63855      .   S
    Zr33   O49       0.98565      .   S
    Zr0    O49       0.98565      .   S
    Zr22   O50       0.63854      .   S
    Zr8    O50       0.63854      .   S
    Zr22   O51       0.98587      .   S
    Zr0    O51       0.98587      .   S
    Zr10   O52       0.63856      .   S
    Zr26   O52       0.63856      .   S
    Zr13   O53       0.63852      .   S
    Zr32   O53       0.63852      .   S
    Zr8    O54       0.63864      .   S
    Zr23   O54       0.63864      .   S
    Zr0    O55       0.98289      .   S
    Zr20   O55       0.98289      .   S
    Zr26   O56       0.98581      .   S
    Zr3    O56       0.98581      .   S
    Zr32   O57       0.98573      .   S
    Zr2    O57       0.98573      .   S
    Zr23   O58       0.98654      .   S
    Zr1    O58       0.98654      .   S
    Zr20   O59       0.98349      .   S
    Zr3    O59       0.98349      .   S
    Zr3    O60       0.98573      .   S
    Zr25   O60       0.98573      .   S
    Zr3    O61       0.98592      .   S
    Zr31   O61       0.98592      .   S
    Zr2    O62       0.98027      .   S
    Zr28   O62       0.98027      .   S
    Zr2    O63       0.98577      .   S
    Zr24   O63       0.98577      .   S
    Zr1    O64       0.98658      .   S
    Zr30   O64       0.98658      .   S
    Zr1    O65       0.98675      .   S
    Zr29   O65       0.98675      .   S
    Zr28   O66       0.64418      .   S
    Zr11   O66       0.64418      .   S
    Zr24   O67       0.63856      .   S
    Zr9    O67       0.63856      .   S
    Zr25   O68       0.63856      .   S
    Zr9    O68       0.63856      .   S
    Zr31   O69       0.57769      .   S
    Zr12   O69       0.57769      .   S
    Zr30   O70       0.65430      .   S
    Zr12   O70       0.65430      .   S
    Zr29   O71       0.63868      .   S
    Zr11   O71       0.63868      .   S
    Zr17   O72       0.63755      .   S
    Zr41   O72       0.63755      .   S
    Zr17   O73       0.64558      .   S
    Zr40   O73       0.64558      .   S
    Zr18   O74       0.63868      .   S
    Zr42   O74       0.63868      .   S
    Zr18   O75       0.63860      .   S
    Zr43   O75       0.63860      .   S
    Zr15   O76       0.63856      .   S
    Zr36   O76       0.63856      .   S
    Zr15   O77       0.63856      .   S
    Zr37   O77       0.63856      .   S
    Zr42   O78       0.98676      .   S
    Zr5    O78       0.98676      .   S
    Zr41   O79       0.98661      .   S
    Zr5    O79       0.98661      .   S
    Zr40   O80       0.98598      .   S
    Zr6    O80       0.98598      .   S
    Zr43   O81       0.98609      .   S
    Zr7    O81       0.98609      .   S
    Zr36   O82       0.98573      .   S
    Zr6    O82       0.98573      .   S
    Zr37   O83       0.98577      .   S
    Zr7    O83       0.98577      .   S
    Zr5    O84       0.98651      .   S
    Zr35   O84       0.98651      .   S
    Zr7    O85       0.98573      .   S
    Zr38   O85       0.98573      .   S
    Zr6    O86       0.98350      .   S
    Zr21   O86       0.98350      .   S
    Zr6    O87       0.98580      .   S
    Zr44   O87       0.98580      .   S
    Zr21   O88       0.98311      .   S
    Zr4    O88       0.98311      .   S
    Zr35   O89       0.63855      .   S
    Zr14   O89       0.63855      .   S
    Zr38   O90       0.63859      .   S
    Zr16   O90       0.63859      .   S
    Zr44   O91       0.63856      .   S
    Zr19   O91       0.63856      .   S
    Zr4    O92       0.98576      .   S
    Zr34   O92       0.98576      .   S
    Zr4    O93       0.98597      .   S
    Zr39   O93       0.98597      .   S
    Zr4    O94       0.98610      .   S
    Zr45   O94       0.98610      .   S
    Zr14   O95       0.63863      .   S
    Zr34   O95       0.63863      .   S
    Zr16   O96       0.63855      .   S
    Zr39   O96       0.63855      .   S
    Zr19   O97       0.63858      .   S
    Zr45   O97       0.63858      .   S
    Zr20   O98       0.98457      .   S
    Zr1    O98       0.98457      .   S
    Zr20   O99       0.98352      .   S
    Zr2    O99       0.98352      .   S
    Zr21   O100      0.98390      .   S
    Zr5    O100      0.98390      .   S
    Zr21   O101      0.98352      .   S
    Zr7    O101      0.98352      .   S
    N102   O103      1.07277      .   S
    Zr19   O103      1.82051      .   S
    N102   O104      1.07406  1_566   S
    Zr10   O104      1.82179      .   S
    N105   O106      1.07386  1_655   S
    Zr11   O106      1.82190      .   S
    N105   O107      1.07396      .   S
    Zr18   O107      1.82199      .   S
    N108   O109      1.07362      .   S
    Zr14   O109      1.82150      .   S
    N108   O110      1.07362  1_556   S
    Zr8    O110      1.82150      .   S
    N111   O112      1.07331  1_656   S
    Zr13   O112      1.82092      .   S
    N111   O113      1.07331      .   S
    Zr16   O113      1.82092      .   S
    N114   O115      1.10333  1_565   S
    Zr12   O115      1.91138      .   S
    N114   O116      1.07045      .   S
    Zr17   O116      1.81190      .   S
    N117   O118      1.07340  1_665   S
    Zr9    O118      1.82103      .   S
    N117   O119      1.07340      .   S
    Zr15   O119      1.82104      .   S
