# CIF file generated by openbabel 2.4.90, see http://openbabel.sf.net
data_I
_chemical_name_common ''
_cell_length_a 13.083
_cell_length_b 18.27
_cell_length_c 18.307
_cell_angle_alpha 89.723
_cell_angle_beta 89.881
_cell_angle_gamma 90.08
_space_group_name_H-M_alt 'P 1'
_space_group_name_Hall 'P 1'
loop_
    _symmetry_equiv_pos_as_xyz
    x,y,z
loop_
    _atom_site_label
    _atom_site_type_symbol
    _atom_site_fract_x
    _atom_site_fract_y
    _atom_site_fract_z
    _atom_site_occupancy
    Lv0     Lv   0.30206   0.31234   0.34079   1.000
    Lv1     Lv   0.31238   0.36761   0.02612   1.000
    Lv2     Lv   0.55351   0.15985   0.80979   1.000
    Lv3     Lv   0.80027   0.68743   0.65815   1.000
    Lv4     Lv   0.19988   0.66001   0.68965   1.000
    Lv5     Lv   0.95172   0.18925   0.84152   1.000
    Lv6     Lv   0.05976   0.52598   0.13236   1.000
    Lv7     Lv   0.70014   0.33994   0.31143   1.000
    Lv8     Lv   0.69162   0.02567   0.36765   1.000
    Lv9     Lv   0.05137   0.84107   0.18831   1.000
    Lv10    Lv   0.44995   0.81198   0.15770   1.000
    Lv11    Lv   0.19348   0.97431   0.63240   1.000
    Lv12    Lv   0.81013   0.63349   0.97374   1.000
    Lv13    Lv   0.94262   0.13049   0.52681   1.000
    Lv14    Lv   0.44100   0.86867   0.47291   1.000
    Lv15    Lv   0.56149   0.47427   0.86947   1.000
