# CIF file generated by openbabel 2.4.90, see http://openbabel.sf.net
data_I
_chemical_name_common ''
_cell_length_a 13.083
_cell_length_b 18.27
_cell_length_c 18.307
_cell_angle_alpha 89.723
_cell_angle_beta 89.881
_cell_angle_gamma 90.08
_space_group_name_H-M_alt 'P 1'
_space_group_name_Hall 'P 1'
loop_
    _symmetry_equiv_pos_as_xyz
    x,y,z
loop_
    _atom_site_label
    _atom_site_type_symbol
    _atom_site_fract_x
    _atom_site_fract_y
    _atom_site_fract_z
    _atom_site_occupancy
    O0      O    0.02484   0.12554   0.48685   1.000
    O1      O    0.95130   0.14389   0.59405   1.000
    O2      O    0.85665   0.12212   0.49700   1.000
    O3      O    0.52352   0.87195   0.51261   1.000
    O4      O    0.44917   0.85598   0.40548   1.000
    O5      O    0.35541   0.87798   0.50315   1.000
    O6      O    0.27488   0.00000   0.62802   1.000
    O7      O    0.20383   0.90658   0.64405   1.000
    O8      O    0.10681   0.00000   0.62514   1.000
    O9      O    0.77292   0.98468   0.37190   1.000
    O10     O    0.70211   0.09342   0.35614   1.000
    O11     O    0.60486   0.99644   0.37485   1.000
    O12     O    0.23084   0.37199   0.98553   1.000
    O13     O    0.30228   0.35606   0.09378   1.000
    O14     O    0.39897   0.37476   0.99663   1.000
    O15     O    0.72850   0.62823   0.00000   1.000
    O16     O    0.80020   0.64688   0.90640   1.000
    O17     O    0.89659   0.62536   0.00000   1.000
    O18     O    0.97842   0.48500   0.12800   1.000
    O19     O    0.04947   0.59360   0.14399   1.000
    O20     O    0.14648   0.49689   0.12509   1.000
    O21     O    0.47968   0.51461   0.87447   1.000
    O22     O    0.55187   0.40690   0.85611   1.000
    O23     O    0.64781   0.50371   0.87777   1.000
