# CIF file generated by openbabel 2.4.90, see http://openbabel.sf.net
data_I
_chemical_name_common ''
_cell_length_a 13.083
_cell_length_b 18.27
_cell_length_c 18.307
_cell_angle_alpha 89.723
_cell_angle_beta 89.881
_cell_angle_gamma 90.08
_space_group_name_H-M_alt 'P 1'
_space_group_name_Hall 'P 1'
loop_
    _symmetry_equiv_pos_as_xyz
    x,y,z
loop_
    _atom_site_label
    _atom_site_type_symbol
    _atom_site_fract_x
    _atom_site_fract_y
    _atom_site_fract_z
    _atom_site_occupancy
    Ba0     Ba   0.66288   0.84692   0.39090   1.000
    Ba1     Ba   0.41593   0.89290   0.65109   1.000
    Ba2     Ba   0.91511   0.10708   0.34878   1.000
    Ba3     Ba   0.08915   0.34810   0.10857   1.000
    Ba4     Ba   0.58701   0.65291   0.89270   1.000
    Ba5     Ba   0.83734   0.60796   0.15146   1.000
    Ba6     Ba   0.33999   0.39141   0.84770   1.000
    Cd7     Cd   0.25240   0.34752   0.65294   1.000
    Cd8     Cd   0.75017   0.65275   0.34603   1.000
    Cd9     Cd   0.50112   0.84722   0.84605   1.000
    Cd10    Cd   0.00075   0.15408   0.15392   1.000
    Ba11    Ba   0.16498   0.15269   0.60788   1.000
    C12     C    0.27200   0.31501   0.50478   1.000
    C13     C    0.14023   0.21841   0.26836   1.000
    C14     C    0.76985   0.68503   0.49425   1.000
    C15     C    0.63904   0.78133   0.73138   1.000
    C16     C    0.52317   0.99555   0.81279   1.000
    C17     C    0.39183   0.23380   0.71668   1.000
    C18     C    0.02108   0.00530   0.18633   1.000
    C19     C    0.88962   0.76638   0.28154   1.000
    C20     C    0.98144   0.18773   0.00549   1.000
    C21     C    0.11429   0.28166   0.76674   1.000
    C22     C    0.47944   0.81495   0.99425   1.000
    C23     C    0.61216   0.71853   0.23141   1.000
    C24     C    0.73019   0.50418   0.31355   1.000
    C25     C    0.86188   0.26635   0.21842   1.000
    C26     C    0.23184   0.49598   0.68723   1.000
    C27     C    0.36170   0.73394   0.78217   1.000
    O28     O    0.20479   0.27484   0.53728   1.000
    O29     O    0.32865   0.35941   0.53914   1.000
    O30     O    0.08755   0.17178   0.30292   1.000
    O31     O    0.12911   0.23118   0.19924   1.000
    O32     O    0.70253   0.72517   0.46221   1.000
    O33     O    0.82644   0.64086   0.45951   1.000
    O34     O    0.58679   0.82813   0.69700   1.000
    O35     O    0.62789   0.76872   0.80055   1.000
    O36     O    0.45750   0.96316   0.77182   1.000
    O37     O    0.57798   0.96086   0.85831   1.000
    O38     O    0.33762   0.19978   0.67106   1.000
    O39     O    0.38218   0.30315   0.72889   1.000
    O40     O    0.95569   0.03723   0.22791   1.000
    O41     O    0.07582   0.04040   0.14082   1.000
    O42     O    0.83580   0.79994   0.32787   1.000
    O43     O    0.87968   0.69714   0.26870   1.000
    O44     O    0.04874   0.22788   0.03724   1.000
    O45     O    0.92450   0.14361   0.04058   1.000
    O46     O    0.16854   0.32783   0.80016   1.000
    O47     O    0.12404   0.26902   0.69762   1.000
    O48     O    0.54673   0.77490   0.96216   1.000
    O49     O    0.42284   0.85922   0.95944   1.000
    O50     O    0.66576   0.67257   0.19721   1.000
    O51     O    0.62233   0.73072   0.30058   1.000
    O52     O    0.79557   0.53692   0.27212   1.000
    O53     O    0.67517   0.53846   0.35906   1.000
    O54     O    0.91575   0.30018   0.17193   1.000
    O55     O    0.87174   0.19704   0.23145   1.000
    O56     O    0.29815   0.46405   0.72812   1.000
    O57     O    0.17708   0.46115   0.64199   1.000
    O58     O    0.41431   0.69994   0.82902   1.000
    O59     O    0.37302   0.80307   0.76868   1.000
    Ts60    Ts   0.61643   0.85526   0.43147   1.000
    Ts61    Ts   0.59164   0.84994   0.39576   1.000
    Ts62    Ts   0.69956   0.89284   0.38457   1.000
    Ts63    Ts   0.64354   0.89676   0.38555   1.000
    Ts64    Ts   0.45179   0.88592   0.60493   1.000
    Ts65    Ts   0.39576   0.88793   0.60178   1.000
    Ts66    Ts   0.36891   0.92860   0.64340   1.000
    Ts67    Ts   0.34523   0.89746   0.64874   1.000
    Ts68    Ts   0.95169   0.11324   0.39480   1.000
    Ts69    Ts   0.89562   0.11210   0.39819   1.000
    Ts70    Ts   0.86771   0.06628   0.35649   1.000
    Ts71    Ts   0.84411   0.10253   0.35123   1.000
    Ts72    Ts   0.13638   0.35607   0.06756   1.000
    Ts73    Ts   0.16020   0.35076   0.10364   1.000
    Ts74    Ts   0.05224   0.39374   0.11505   1.000
    Ts75    Ts   0.10826   0.39770   0.11408   1.000
    Ts76    Ts   0.63417   0.64469   0.92847   1.000
    Ts77    Ts   0.65807   0.65090   0.89727   1.000
    Ts78    Ts   0.55123   0.60681   0.88662   1.000
    Ts79    Ts   0.60727   0.60318   0.88772   1.000
    Ts80    Ts   0.80106   0.61472   0.10097   1.000
    Ts81    Ts   0.85709   0.61376   0.10097   1.000
    Ts82    Ts   0.88436   0.56697   0.14364   1.000
    Ts83    Ts   0.90805   0.60317   0.14897   1.000
    Ts84    Ts   0.30361   0.38494   0.89364   1.000
    Ts85    Ts   0.35965   0.38586   0.89734   1.000
    Ts86    Ts   0.38655   0.43248   0.85662   1.000
    Ts87    Ts   0.41062   0.39657   0.85050   1.000
    Ts88    Ts   0.11827   0.14364   0.56754   1.000
    Ts89    Ts   0.09376   0.14976   0.60327   1.000
    Ts90    Ts   0.20161   0.10180   0.61459   1.000
    Ts91    Ts   0.14559   0.10180   0.61363   1.000
    Og92    Og   0.27517   0.31324   0.47772   1.000
    Og93    Og   0.16625   0.23315   0.28169   1.000
    Og94    Og   0.77308   0.68674   0.52131   1.000
    Og95    Og   0.66489   0.76653   0.71793   1.000
    Og96    Og   0.52641   0.02267   0.81092   1.000
    Og97    Og   0.41785   0.22018   0.73124   1.000
    Og98    Og   0.02428   0.97818   0.18798   1.000
    Og99    Og   0.91561   0.78012   0.26695   1.000
    Og100   Og   0.97834   0.18934   0.97840   1.000
    Og101   Og   0.08821   0.26717   0.78049   1.000
    Og102   Og   0.47636   0.81314   0.02133   1.000
    Og103   Og   0.58612   0.73321   0.21795   1.000
    Og104   Og   0.72706   0.47707   0.31185   1.000
    Og105   Og   0.83590   0.27994   0.23296   1.000
    Og106   Og   0.22827   0.52305   0.68897   1.000
    Og107   Og   0.33569   0.72037   0.76766   1.000
loop_
    _geom_bond_atom_site_label_1
    _geom_bond_atom_site_label_2
    _geom_bond_distance
    _geom_bond_site_symmetry_2
    _ccdc_geom_bond_type
    C20    O44       1.28676  1_655   S
    C20    O45       1.26827      .   S
    O44    Ba3       2.61469      .   S
    O45    Cd10      2.31274  1_655   S
    Ba3    O54       2.68937  1_455   S
    O41    Cd10      2.31198      .   S
    O41    C18       1.26862      .   S
    Ba5    O50       2.67263      .   S
    Ba5    O52       2.61305      .   S
    Cd10   O31       2.34595      .   S
    Cd10   O55       2.34172  1_455   S
    O54    C25       1.26264      .   S
    C18    O40       1.28634  1_455   S
    O50    C23       1.26236      .   S
    O31    C13       1.29413      .   S
    C25    O55       1.29418      .   S
    O40    Ba2       2.61363      .   S
    C23    O51       1.29388      .   S
    C13    O30       1.26186      .   S
    O43    C19       1.29412      .   S
    O43    Cd8       2.34692      .   S
    O52    C24       1.28691      .   S
    C19    O42       1.26290      .   S
    O51    Cd8       2.34948      .   S
    O30    Ba2       2.67706  1_455   S
    C24    O53       1.26825      .   S
    O42    Ba0       2.68148      .   S
    Cd8    O53       2.31683      .   S
    Cd8    O33       2.31593      .   S
    Ba0    O32       2.62665      .   S
    O33    C14       1.26835      .   S
    O32    C14       1.28739      .   S
    C12    O28       1.28741      .   S
    C12    O29       1.26824      .   S
    O28    Ba11      2.62450      .   S
    O29    Cd7       2.31713      .   S
    Ba11   O38       2.68218      .   S
    O57    Cd7       2.30718      .   S
    O57    C26       1.26900      .   S
    Ba1    O34       2.66630      .   S
    Ba1    O36       2.61898      .   S
    Cd7    O47       2.35004      .   S
    Cd7    O39       2.34011      .   S
    O38    C17       1.26222      .   S
    C26    O56       1.28572      .   S
    O34    C15       1.26206      .   S
    O47    C21       1.29348      .   S
    C17    O39       1.29400      .   S
    O56    Ba6       2.61387      .   S
    C15    O35       1.29391      .   S
    C21    O46       1.26283      .   S
    O59    C27       1.29392      .   S
    O59    Cd9       2.34155      .   S
    O36    C16       1.28701      .   S
    C27    O58       1.26246      .   S
    O46    Ba6       2.67369      .   S
    O35    Cd9       2.34818      .   S
    C16    O37       1.26833      .   S
    O58    Ba4       2.68490      .   S
    Cd9    O37       2.31770      .   S
    Cd9    O49       2.32425      .   S
    Ba4    O48       2.62488      .   S
    O49    C22       1.26770      .   S
    O48    C22       1.28816      .   S
    O31    Ba3       2.75036      .   S
    O35    Ba4       2.75087      .   S
    O39    Ba6       2.76895      .   S
    O43    Ba5       2.75763      .   S
    O47    Ba11      2.74512      .   S
    O51    Ba0       2.74903      .   S
    O55    Ba2       2.75866      .   S
    O59    Ba1       2.75708      .   S
    Ba0    Ts60      0.97144      .   S
    Ba0    Ts61      0.93780      .   S
    Ba0    Ts62      0.97221      .   S
    Ba0    Ts63      0.95006      .   S
    Ba1    Ts64      0.97474      .   S
    Ba1    Ts65      0.94586      .   S
    Ba1    Ts66      0.90786      .   S
    Ba1    Ts67      0.92990      .   S
    Ba2    Ts68      0.97670      .   S
    Ba2    Ts69      0.94414      .   S
    Ba2    Ts70      0.97851      .   S
    Ba2    Ts71      0.93347      .   S
    Ba3    Ts72      0.98157      .   S
    Ba3    Ts73      0.93481      .   S
    Ba3    Ts74      0.97165      .   S
    Ba3    Ts75      0.94553      .   S
    Ba4    Ts76      0.91273      .   S
    Ba4    Ts77      0.93443      .   S
    Ba4    Ts78      0.96996      .   S
    Ba4    Ts79      0.95163      .   S
    Ba5    Ts80      1.04673      .   S
    Ba5    Ts81      0.96449      .   S
    Ba5    Ts82      0.98073      .   S
    Ba5    Ts83      0.93039      .   S
    Ba6    Ts84      0.97221      .   S
    Ba6    Ts85      0.95002      .   S
    Ba6    Ts86      0.98036      .   S
    Ba6    Ts87      0.93022      .   S
    Ba11   Ts88      0.97423      .   S
    Ba11   Ts89      0.93732      .   S
    Ba11   Ts90      1.05351      .   S
    Ba11   Ts91      0.96873      .   S
    C12    Og92      0.49819      .   S
    C13    Og93      0.49871      .   S
    C14    Og94      0.49833      .   S
    C15    Og95      0.49868      .   S
    C16    Og96      0.49830  1_565   S
    C17    Og97      0.49874      .   S
    C18    Og98      0.49817  1_545   S
    C19    Og99      0.49872      .   S
    C20    Og100     0.49834  1_554   S
    C21    Og101     0.49857      .   S
    C22    Og102     0.49824  1_556   S
    C23    Og103     0.49876      .   S
    C24    Og104     0.49806      .   S
    C25    Og105     0.49852      .   S
    C26    Og106     0.49807      .   S
    C27    Og107     0.49852      .   S
