# CIF file generated by openbabel 2.4.90, see http://openbabel.sf.net
data_I
_chemical_name_common ''
_cell_length_a 13.083
_cell_length_b 18.27
_cell_length_c 18.307
_cell_angle_alpha 89.723
_cell_angle_beta 89.881
_cell_angle_gamma 90.08
_space_group_name_H-M_alt 'P 1'
_space_group_name_Hall 'P 1'
loop_
    _symmetry_equiv_pos_as_xyz
    x,y,z
loop_
    _atom_site_label
    _atom_site_type_symbol
    _atom_site_fract_x
    _atom_site_fract_y
    _atom_site_fract_z
    _atom_site_occupancy
    N0      N    0.30206   0.31234   0.34079   1.000
    N1      N    0.31238   0.36761   0.02612   1.000
    N2      N    0.55351   0.15985   0.80979   1.000
    N3      N    0.80027   0.68743   0.65815   1.000
    N4      N    0.19988   0.66001   0.68965   1.000
    N5      N    0.95172   0.18925   0.84152   1.000
    N6      N    0.05976   0.52598   0.13236   1.000
    N7      N    0.70014   0.33994   0.31143   1.000
    N8      N    0.69162   0.02567   0.36765   1.000
    N9      N    0.05137   0.84107   0.18831   1.000
    N10     N    0.44995   0.81198   0.15770   1.000
    N11     N    0.19348   0.97431   0.63240   1.000
    N12     N    0.81013   0.63349   0.97374   1.000
    N13     N    0.94262   0.13049   0.52681   1.000
    N14     N    0.44100   0.86867   0.47291   1.000
    N15     N    0.56149   0.47427   0.86947   1.000
    Zr16    Zr   0.50096   0.82512   0.82383   1.000
    O17     O    0.52087   0.96158   0.81686   1.000
    O18     O    0.48167   0.81861   0.96006   1.000
    O19     O    0.62000   0.77420   0.75425   1.000
    O20     O    0.38112   0.75596   0.77443   1.000
    Zr21    Zr   0.75037   0.67490   0.32376   1.000
    O22     O    0.73159   0.53831   0.31749   1.000
    O23     O    0.87017   0.74447   0.27387   1.000
    O24     O    0.63094   0.72558   0.25411   1.000
    O25     O    0.76892   0.68121   0.46013   1.000
    Zr26    Zr   0.00124   0.17576   0.17613   1.000
    O27     O    0.12095   0.22610   0.24535   1.000
    O28     O    0.98275   0.18273   0.03966   1.000
    O29     O    0.88138   0.24455   0.22598   1.000
    O30     O    0.01993   0.03930   0.18234   1.000
    Zr31    Zr   0.25256   0.32515   0.67521   1.000
    O32     O    0.13300   0.27487   0.74483   1.000
    O33     O    0.23287   0.46173   0.68248   1.000
    O34     O    0.37237   0.25588   0.72468   1.000
    O35     O    0.27098   0.31875   0.53885   1.000
    O36     O    0.86008   0.61568   0.23181   1.000
    O37     O    0.03518   0.31550   0.14909   1.000
    O38     O    0.64042   0.76730   0.38288   1.000
    O39     O    0.78455   0.64850   0.18081   1.000
    O40     O    0.71638   0.81478   0.35076   1.000
    O41     O    0.36219   0.38429   0.76805   1.000
    O42     O    0.53526   0.68511   0.85205   1.000
    O43     O    0.46727   0.85228   0.68375   1.000
    O44     O    0.96779   0.14770   0.31613   1.000
    O45     O    0.11172   0.26790   0.11651   1.000
    O46     O    0.89157   0.11591   0.26817   1.000
    O47     O    0.14243   0.23218   0.61626   1.000
    O48     O    0.61049   0.73326   0.88095   1.000
    O49     O    0.28687   0.35152   0.81522   1.000
    O50     O    0.21847   0.18166   0.64856   1.000
    O51     O    0.39223   0.88166   0.73181   1.000
loop_
    _geom_bond_atom_site_label_1
    _geom_bond_atom_site_label_2
    _geom_bond_distance
    _geom_bond_site_symmetry_2
    _ccdc_geom_bond_type
    Zr16   O17       2.50894      .   S
    N2     O17       3.64856  1_545   S
    Zr16   O18       2.50837      .   S
    N10    O18       3.64251  1_554   S
    Zr16   O19       2.21823      .   S
    N3     O19       3.34523      .   S
    Zr16   O20       2.20998      .   S
    N4     O20       3.33683      .   S
    Zr21   O22       2.51040      .   S
    N7     O22       3.64930      .   S
    Zr21   O23       2.20989      .   S
    N9     O23       3.33676  1_455   S
    Zr21   O24       2.21931      .   S
    N10    O24       3.34887      .   S
    Zr21   O25       2.51192      .   S
    N3     O25       3.65151      .   S
    Zr26   O27       2.21812      .   S
    N0     O27       3.34415      .   S
    Zr26   O28       2.51319  1_455   S
    N5     O28       3.65225  1_556   S
    Zr26   O29       2.20950  1_455   S
    N7     O29       3.33609      .   S
    Zr26   O30       2.50745      .   S
    N9     O30       3.64664  1_565   S
    Zr31   O32       2.21155      .   S
    N5     O32       3.33926  1_655   S
    Zr31   O33       2.51294      .   S
    N4     O33       3.65186      .   S
    Zr31   O34       2.20890      .   S
    N2     O34       3.33501      .   S
    Zr31   O35       2.51079      .   S
    N0     O35       3.65033      .   S
    N6     O36       3.58419  1_455   S
    Zr21   O36       2.46503      .   S
    N6     O37       3.86919      .   S
    Zr26   O37       2.63511      .   S
    Zr21   O38       2.47152      .   S
    N14    O38       3.60252      .   S
    Zr21   O39       2.69985      .   S
    N12    O39       3.81614  1_556   S
    Zr21   O40       2.64329      .   S
    N8     O40       3.88075  1_545   S
    N15    O41       3.60364      .   S
    Zr31   O41       2.47725      .   S
    N15    O42       3.87946      .   S
    Zr16   O42       2.64629      .   S
    N14    O43       3.88607      .   S
    Zr16   O43       2.64750      .   S
    Zr26   O44       2.64680  1_455   S
    N13    O44       3.88138      .   S
    Zr26   O45       2.46655      .   S
    N1     O45       3.59000      .   S
    Zr26   O46       2.46189  1_455   S
    N8     O46       3.58019      .   S
    N13    O47       3.60557  1_655   S
    Zr31   O47       2.47859      .   S
    N12    O48       3.60999      .   S
    Zr16   O48       2.44124      .   S
    Zr31   O49       2.64943      .   S
    N1     O49       3.88847  1_554   S
    Zr31   O50       2.70549      .   S
    N11    O50       3.81501  1_565   S
    N11    O51       3.59732      .   S
    Zr16   O51       2.43422      .   S
