# CIF file generated by openbabel 2.4.90, see http://openbabel.sf.net
data_I
_chemical_name_common ''
_cell_length_a 13.083
_cell_length_b 18.27
_cell_length_c 18.307
_cell_angle_alpha 89.723
_cell_angle_beta 89.881
_cell_angle_gamma 90.08
_space_group_name_H-M_alt 'P 1'
_space_group_name_Hall 'P 1'
loop_
    _symmetry_equiv_pos_as_xyz
    x,y,z
loop_
    _atom_site_label
    _atom_site_type_symbol
    _atom_site_fract_x
    _atom_site_fract_y
    _atom_site_fract_z
    _atom_site_occupancy
    C0      C    0.16498   0.15269   0.60788   1.000
    C1      C    0.66288   0.84692   0.39090   1.000
    C2      C    0.41593   0.89290   0.65109   1.000
    C3      C    0.91511   0.10708   0.34878   1.000
    C4      C    0.08915   0.34810   0.10857   1.000
    C5      C    0.58701   0.65291   0.89270   1.000
    C6      C    0.83734   0.60796   0.15146   1.000
    C7      C    0.33999   0.39141   0.84770   1.000
    C8      C    0.25240   0.34752   0.65294   1.000
    C9      C    0.75017   0.65275   0.34603   1.000
    C10     C    0.50112   0.84722   0.84605   1.000
    C11     C    0.00075   0.15408   0.15392   1.000
    C12     C    0.15328   0.23630   0.41351   1.000
    C13     C    0.30242   0.29701   0.21217   1.000
    C14     C    0.42486   0.37370   0.28099   1.000
    C15     C    0.40963   0.38318   0.41732   1.000
    C16     C    0.65137   0.76329   0.58613   1.000
    C17     C    0.80088   0.70258   0.78681   1.000
    C18     C    0.92315   0.62621   0.71737   1.000
    C19     C    0.90779   0.61701   0.58107   1.000
    C20     C    0.40478   0.08788   0.73409   1.000
    C21     C    0.55404   0.28889   0.79445   1.000
    C22     C    0.67630   0.21905   0.87085   1.000
    C23     C    0.66070   0.08238   0.88045   1.000
    C24     C    0.90241   0.91244   0.26450   1.000
    C25     C    0.05187   0.71199   0.20313   1.000
    C26     C    0.17440   0.78239   0.12691   1.000
    C27     C    0.15882   0.91906   0.11787   1.000
    C28     C    0.10119   0.26509   0.91259   1.000
    C29     C    0.95180   0.20344   0.71262   1.000
    C30     C    0.82842   0.12800   0.78307   1.000
    C31     C    0.84322   0.11975   0.91956   1.000
    C32     C    0.59891   0.73672   0.08000   1.000
    C33     C    0.45002   0.79643   0.28704   1.000
    C34     C    0.32711   0.87280   0.21781   1.000
    C35     C    0.34181   0.88245   0.08135   1.000
    C36     C    0.84919   0.41234   0.23525   1.000
    C37     C    0.69972   0.21100   0.29670   1.000
    C38     C    0.57699   0.28043   0.37280   1.000
    C39     C    0.59266   0.41704   0.38182   1.000
    C40     C    0.34942   0.58834   0.76517   1.000
    C41     C    0.19894   0.78900   0.70425   1.000
    C42     C    0.07617   0.71889   0.62895   1.000
    C43     C    0.09255   0.58238   0.61978   1.000
    C44     C    0.28152   0.30969   0.42361   1.000
    C45     C    0.21276   0.26639   0.38455   1.000
    C46     C    0.21828   0.26264   0.30835   1.000
    C47     C    0.29550   0.30132   0.27120   1.000
    C48     C    0.36487   0.34415   0.31017   1.000
    C49     C    0.35748   0.34904   0.38600   1.000
    C50     C    0.27200   0.31501   0.50478   1.000
    C51     C    0.14023   0.21841   0.26836   1.000
    C52     C    0.77953   0.69015   0.57542   1.000
    C53     C    0.71086   0.73324   0.61483   1.000
    C54     C    0.71659   0.73694   0.69102   1.000
    C55     C    0.79382   0.69831   0.72774   1.000
    C56     C    0.86312   0.65570   0.68847   1.000
    C57     C    0.85561   0.65092   0.61265   1.000
    C58     C    0.76985   0.68503   0.49425   1.000
    C59     C    0.63904   0.78133   0.73138   1.000
    C60     C    0.53289   0.07692   0.80719   1.000
    C61     C    0.46425   0.11653   0.76404   1.000
    C62     C    0.46987   0.19294   0.76035   1.000
    C63     C    0.54713   0.22962   0.79870   1.000
    C64     C    0.61635   0.19017   0.84143   1.000
    C65     C    0.60877   0.11415   0.84638   1.000
    C66     C    0.52317   0.99555   0.81279   1.000
    C67     C    0.39183   0.23380   0.71668   1.000
    C68     C    0.03068   0.92393   0.19127   1.000
    C69     C    0.96194   0.88399   0.23430   1.000
    C70     C    0.96758   0.80760   0.23776   1.000
    C71     C    0.04494   0.77124   0.19906   1.000
    C72     C    0.11432   0.81103   0.15650   1.000
    C73     C    0.10672   0.88705   0.15183   1.000
    C74     C    0.02108   0.00530   0.18633   1.000
    C75     C    0.88962   0.76638   0.28154   1.000
    C76     C    0.97214   0.19255   0.92423   1.000
    C77     C    0.04146   0.23510   0.88425   1.000
    C78     C    0.03605   0.23820   0.80798   1.000
    C79     C    0.95851   0.19961   0.77178   1.000
    C80     C    0.88862   0.15751   0.81160   1.000
    C81     C    0.89582   0.15329   0.88750   1.000
    C82     C    0.98144   0.18773   0.00549   1.000
    C83     C    0.11429   0.28166   0.76674   1.000
    C84     C    0.47021   0.80951   0.07549   1.000
    C85     C    0.53935   0.76649   0.11479   1.000
    C86     C    0.53402   0.76256   0.19102   1.000
    C87     C    0.45674   0.80088   0.22790   1.000
    C88     C    0.38709   0.84349   0.18877   1.000
    C89     C    0.39422   0.84851   0.11280   1.000
    C90     C    0.47944   0.81495   0.99425   1.000
    C91     C    0.61216   0.71853   0.23141   1.000
    C92     C    0.72081   0.42285   0.30846   1.000
    C93     C    0.78963   0.38349   0.26539   1.000
    C94     C    0.78395   0.30712   0.26205   1.000
    C95     C    0.70654   0.27023   0.30072   1.000
    C96     C    0.63713   0.30945   0.34324   1.000
    C97     C    0.64474   0.38543   0.34787   1.000
    C98     C    0.73019   0.50418   0.31355   1.000
    C99     C    0.86188   0.26635   0.21842   1.000
    C100    C    0.22112   0.57720   0.69246   1.000
    C101    C    0.28968   0.61692   0.73526   1.000
    C102    C    0.28367   0.69324   0.73865   1.000
    C103    C    0.20603   0.72978   0.70030   1.000
    C104    C    0.13660   0.69017   0.65819   1.000
    C105    C    0.14461   0.61421   0.65348   1.000
    C106    C    0.23184   0.49598   0.68723   1.000
    C107    C    0.36170   0.73394   0.78217   1.000
    C108    C    0.94262   0.13049   0.52681   1.000
    C109    C    0.44100   0.86867   0.47291   1.000
    C110    C    0.19348   0.97431   0.63240   1.000
    C111    C    0.69162   0.02567   0.36765   1.000
    C112    C    0.31238   0.36761   0.02612   1.000
    C113    C    0.81013   0.63349   0.97374   1.000
    C114    C    0.05976   0.52598   0.13236   1.000
    C115    C    0.56149   0.47427   0.86947   1.000
    C116    C    0.02484   0.12554   0.48685   1.000
    C117    C    0.95130   0.14389   0.59405   1.000
    C118    C    0.85665   0.12212   0.49700   1.000
    C119    C    0.20479   0.27484   0.53728   1.000
    C120    C    0.32865   0.35941   0.53914   1.000
    C121    C    0.08755   0.17178   0.30292   1.000
    C122    C    0.12911   0.23118   0.19924   1.000
    C123    C    0.52352   0.87195   0.51261   1.000
    C124    C    0.44917   0.85598   0.40548   1.000
    C125    C    0.35541   0.87798   0.50315   1.000
    C126    C    0.70253   0.72517   0.46221   1.000
    C127    C    0.82644   0.64086   0.45951   1.000
    C128    C    0.58679   0.82813   0.69700   1.000
    C129    C    0.62789   0.76872   0.80055   1.000
    C130    C    0.27488   0.00000   0.62802   1.000
    C131    C    0.20383   0.90658   0.64405   1.000
    C132    C    0.10681   0.00000   0.62514   1.000
    C133    C    0.45750   0.96316   0.77182   1.000
    C134    C    0.57798   0.96086   0.85831   1.000
    C135    C    0.33762   0.19978   0.67106   1.000
    C136    C    0.38218   0.30315   0.72889   1.000
    C137    C    0.77292   0.98468   0.37190   1.000
    C138    C    0.70211   0.09342   0.35614   1.000
    C139    C    0.60486   0.99644   0.37485   1.000
    C140    C    0.95569   0.03723   0.22791   1.000
    C141    C    0.07582   0.04040   0.14082   1.000
    C142    C    0.83580   0.79994   0.32787   1.000
    C143    C    0.87968   0.69714   0.26870   1.000
    C144    C    0.23084   0.37199   0.98553   1.000
    C145    C    0.30228   0.35606   0.09378   1.000
    C146    C    0.39897   0.37476   0.99663   1.000
    C147    C    0.04874   0.22788   0.03724   1.000
    C148    C    0.92450   0.14361   0.04058   1.000
    C149    C    0.16854   0.32783   0.80016   1.000
    C150    C    0.12404   0.26902   0.69762   1.000
    C151    C    0.72850   0.62823   0.00000   1.000
    C152    C    0.80020   0.64688   0.90640   1.000
    C153    C    0.89659   0.62536   0.00000   1.000
    C154    C    0.54673   0.77490   0.96216   1.000
    C155    C    0.42284   0.85922   0.95944   1.000
    C156    C    0.66576   0.67257   0.19721   1.000
    C157    C    0.62233   0.73072   0.30058   1.000
    C158    C    0.97842   0.48500   0.12800   1.000
    C159    C    0.04947   0.59360   0.14399   1.000
    C160    C    0.14648   0.49689   0.12509   1.000
    C161    C    0.79557   0.53692   0.27212   1.000
    C162    C    0.67517   0.53846   0.35906   1.000
    C163    C    0.91575   0.30018   0.17193   1.000
    C164    C    0.87174   0.19704   0.23145   1.000
    C165    C    0.47968   0.51461   0.87447   1.000
    C166    C    0.55187   0.40690   0.85611   1.000
    C167    C    0.64781   0.50371   0.87777   1.000
    C168    C    0.29815   0.46405   0.72812   1.000
    C169    C    0.17708   0.46115   0.64199   1.000
    C170    C    0.41431   0.69994   0.82902   1.000
    C171    C    0.37302   0.80307   0.76868   1.000
    O172    O    0.76932   0.63086   0.98687   1.000
    O173    O    0.85336   0.62942   0.98687   1.000
    O174    O    0.01509   0.20781   0.02136   1.000
    O175    O    0.95297   0.16567   0.02303   1.000
    O176    O    0.97679   0.19014   0.96486   1.000
    O177    O    0.30733   0.36184   0.05995   1.000
    O178    O    0.27161   0.36980   0.00582   1.000
    O179    O    0.35568   0.37119   0.01137   1.000
    O180    O    0.06895   0.28799   0.07290   1.000
    O181    O    0.96263   0.14885   0.09725   1.000
    O182    O    0.43222   0.82901   0.09414   1.000
    O183    O    0.50478   0.78800   0.09514   1.000
    O184    O    0.47482   0.81223   0.03487   1.000
    O185    O    0.56913   0.75160   0.09739   1.000
    O186    O    0.36802   0.86548   0.09707   1.000
    O187    O    0.00245   0.32414   0.14025   1.000
    O188    O    0.39065   0.84600   0.15078   1.000
    O189    O    0.53668   0.76452   0.15290   1.000
    O190    O    0.13277   0.90305   0.13485   1.000
    O191    O    0.10312   0.51144   0.12873   1.000
    O192    O    0.14436   0.79671   0.14170   1.000
    O193    O    0.01909   0.50549   0.13018   1.000
    O194    O    0.05461   0.55979   0.13817   1.000
    O195    O    0.03828   0.09724   0.14737   1.000
    O196    O    0.04845   0.02285   0.16357   1.000
    O197    O    0.75155   0.64027   0.17433   1.000
    O198    O    0.81645   0.57244   0.21179   1.000
    O199    O    0.11052   0.84904   0.15416   1.000
    O200    O    0.06870   0.90549   0.17155   1.000
    O201    O    0.06493   0.19263   0.17658   1.000
    O202    O    0.93624   0.17556   0.19268   1.000
    O203    O    0.07963   0.79113   0.17778   1.000
    O204    O    0.88881   0.28327   0.19517   1.000
    O205    O    0.02588   0.96461   0.18880   1.000
    O206    O    0.98838   0.02127   0.20712   1.000
    O207    O    0.35710   0.85814   0.20329   1.000
    O208    O    0.42191   0.82218   0.20833   1.000
    O209    O    0.49538   0.78172   0.20946   1.000
    O210    O    0.57309   0.74055   0.21121   1.000
    O211    O    0.99631   0.90396   0.21278   1.000
    O212    O    0.63896   0.69555   0.21431   1.000
    O213    O    0.04840   0.74161   0.20109   1.000
    O214    O    0.00626   0.78942   0.21841   1.000
    O215    O    0.13467   0.22480   0.23380   1.000
    O216    O    0.29896   0.29916   0.24168   1.000
    O217    O    0.86681   0.23170   0.22493   1.000
    O218    O    0.82291   0.28674   0.24024   1.000
    O219    O    0.45338   0.79865   0.25747   1.000
    O220    O    0.93540   0.07216   0.28834   1.000
    O221    O    0.61725   0.72463   0.26600   1.000
    O222    O    0.96476   0.84580   0.23603   1.000
    O223    O    0.93217   0.89821   0.24940   1.000
    O224    O    0.81941   0.39792   0.25032   1.000
    O225    O    0.92860   0.78699   0.25965   1.000
    O226    O    0.78679   0.34531   0.26372   1.000
    O227    O    0.74525   0.28868   0.28138   1.000
    O228    O    0.75522   0.40317   0.28693   1.000
    O229    O    0.11389   0.19510   0.28564   1.000
    O230    O    0.17926   0.24053   0.28835   1.000
    O231    O    0.88465   0.73176   0.27512   1.000
    O232    O    0.81493   0.67495   0.30736   1.000
    O233    O    0.25689   0.28198   0.28977   1.000
    O234    O    0.33018   0.32273   0.29069   1.000
    O235    O    0.76288   0.52055   0.29283   1.000
    O236    O    0.39486   0.35893   0.29558   1.000
    O237    O    0.86271   0.78316   0.30470   1.000
    O238    O    0.70313   0.24061   0.29871   1.000
    O239    O    0.68625   0.69173   0.32330   1.000
    O240    O    0.67184   0.28984   0.32198   1.000
    O241    O    0.00133   0.13943   0.32585   1.000
    O242    O    0.21552   0.26452   0.34645   1.000
    O243    O    0.72550   0.46351   0.31100   1.000
    O244    O    0.68278   0.40414   0.32816   1.000
    O245    O    0.36117   0.34660   0.34808   1.000
    O246    O    0.70268   0.52132   0.33630   1.000
    O247    O    0.74934   0.82343   0.35938   1.000
    O248    O    0.64093   0.34744   0.34556   1.000
    O249    O    0.60706   0.29494   0.35802   1.000
    O250    O    0.71267   0.59561   0.35254   1.000
    O251    O    0.78830   0.64680   0.40277   1.000
    O252    O    0.61870   0.40124   0.36484   1.000
    O253    O    0.69686   0.05954   0.36189   1.000
    O254    O    0.73227   0.00517   0.36977   1.000
    O255    O    0.64824   0.01105   0.37125   1.000
    O256    O    0.18302   0.25134   0.39903   1.000
    O257    O    0.24714   0.28804   0.40408   1.000
    O258    O    0.38356   0.36611   0.40166   1.000
    O259    O    0.31950   0.32937   0.40480   1.000
    O260    O    0.68270   0.78605   0.42656   1.000
    O261    O    0.44508   0.86233   0.43919   1.000
    O262    O    0.27676   0.31235   0.46420   1.000
    O263    O    0.79814   0.66295   0.47688   1.000
    O264    O    0.73619   0.70510   0.47823   1.000
    O265    O    0.39820   0.87332   0.48803   1.000
    O266    O    0.48226   0.87031   0.49276   1.000
    O267    O    0.98373   0.12802   0.50683   1.000
    O268    O    0.77469   0.68759   0.53484   1.000
    O269    O    0.89964   0.12631   0.51190   1.000
    O270    O    0.23840   0.29492   0.52103   1.000
    O271    O    0.30033   0.33721   0.52196   1.000
    O272    O    0.94696   0.13719   0.56043   1.000
    O273    O    0.18489   0.21377   0.57258   1.000
    O274    O    0.29053   0.35347   0.59604   1.000
    O275    O    0.81757   0.67054   0.59403   1.000
    O276    O    0.74519   0.71170   0.59512   1.000
    O277    O    0.88170   0.63397   0.59686   1.000
    O278    O    0.68111   0.74827   0.60048   1.000
    O279    O    0.25130   0.17624   0.63947   1.000
    O280    O    0.85936   0.65331   0.65056   1.000
    O281    O    0.71372   0.73509   0.65292   1.000
    O282    O    0.11858   0.59830   0.63663   1.000
    O283    O    0.15015   0.98715   0.62877   1.000
    O284    O    0.23418   0.98715   0.63021   1.000
    O285    O    0.10639   0.70453   0.64357   1.000
    O286    O    0.19866   0.94045   0.63823   1.000
    O287    O    0.21474   0.40434   0.64746   1.000
    O288    O    0.20446   0.47856   0.66461   1.000
    O289    O    0.50136   0.86052   0.67404   1.000
    O290    O    0.43672   0.92803   0.71145   1.000
    O291    O    0.18822   0.30827   0.67528   1.000
    O292    O    0.31729   0.32534   0.69091   1.000
    O293    O    0.14061   0.65219   0.65583   1.000
    O294    O    0.18287   0.59570   0.67297   1.000
    O295    O    0.17132   0.70998   0.67924   1.000
    O296    O    0.36472   0.21679   0.69387   1.000
    O297    O    0.22648   0.53659   0.68984   1.000
    O298    O    0.26499   0.48001   0.70767   1.000
    O299    O    0.89313   0.64095   0.70292   1.000
    O300    O    0.82847   0.67700   0.70810   1.000
    O301    O    0.75521   0.71762   0.70938   1.000
    O302    O    0.67782   0.75913   0.71120   1.000
    O303    O    0.25540   0.59706   0.71386   1.000
    O304    O    0.61292   0.80473   0.71419   1.000
    O305    O    0.11917   0.27534   0.73218   1.000
    O306    O    0.20248   0.75939   0.70227   1.000
    O307    O    0.24485   0.71151   0.71948   1.000
    O308    O    0.95515   0.20153   0.74220   1.000
    O309    O    0.38701   0.26848   0.72279   1.000
    O310    O    0.43085   0.21337   0.73851   1.000
    O311    O    0.79735   0.70044   0.75727   1.000
    O312    O    0.31907   0.42773   0.78791   1.000
    O313    O    0.63347   0.77503   0.76596   1.000
    O314    O    0.43451   0.10221   0.74906   1.000
    O315    O    0.28668   0.65508   0.73695   1.000
    O316    O    0.31955   0.60263   0.75021   1.000
    O317    O    0.32269   0.71359   0.76041   1.000
    O318    O    0.46706   0.15474   0.76219   1.000
    O319    O    0.50850   0.21128   0.77952   1.000
    O320    O    0.49857   0.09673   0.78561   1.000
    O321    O    0.14142   0.30475   0.78345   1.000
    O322    O    0.07517   0.25993   0.78736   1.000
    O323    O    0.36736   0.76850   0.77543   1.000
    O324    O    0.43707   0.82514   0.80736   1.000
    O325    O    0.99728   0.21890   0.78988   1.000
    O326    O    0.92357   0.17856   0.79169   1.000
    O327    O    0.49034   0.97935   0.79230   1.000
    O328    O    0.38800   0.71694   0.80559   1.000
    O329    O    0.85852   0.14276   0.79733   1.000
    O330    O    0.55059   0.25925   0.79657   1.000
    O331    O    0.58174   0.20990   0.82007   1.000
    O332    O    0.25426   0.35962   0.82393   1.000
    O333    O    0.56450   0.80797   0.82330   1.000
    O334    O    0.52803   0.03623   0.80999   1.000
    O335    O    0.57083   0.09553   0.82678   1.000
    O336    O    0.03875   0.23665   0.84611   1.000
    O337    O    0.89222   0.15540   0.84955   1.000
    O338    O    0.55057   0.97820   0.83555   1.000
    O339    O    0.50066   0.67642   0.86086   1.000
    O340    O    0.61256   0.15216   0.84390   1.000
    O341    O    0.64632   0.20461   0.85614   1.000
    O342    O    0.53955   0.90404   0.85218   1.000
    O343    O    0.46198   0.85322   0.90274   1.000
    O344    O    0.63473   0.09826   0.86341   1.000
    O345    O    0.55668   0.44058   0.86279   1.000
    O346    O    0.52059   0.49444   0.87197   1.000
    O347    O    0.60465   0.48899   0.87362   1.000
    O348    O    0.07132   0.25010   0.89842   1.000
    O349    O    0.00680   0.21382   0.90424   1.000
    O350    O    0.86952   0.13652   0.90353   1.000
    O351    O    0.93398   0.17292   0.90586   1.000
    O352    O    0.56687   0.71391   0.92743   1.000
    O353    O    0.80517   0.64019   0.94007   1.000
    O354    O    0.45114   0.83708   0.97684   1.000
    O355    O    0.51308   0.79493   0.97820   1.000
    O356    O    0.09491   0.13912   0.54736   1.000
    O357    O    0.96998   0.11631   0.41781   1.000
    O358    O    0.05814   0.14829   0.60096   1.000
    O359    O    0.88588   0.11460   0.42289   1.000
    O360    O    0.10913   0.28964   0.15390   1.000
    O361    O    0.59320   0.85943   0.45175   1.000
    O362    O    0.46972   0.88242   0.58185   1.000
    O363    O    0.55602   0.85145   0.39819   1.000
    O364    O    0.38567   0.88544   0.57712   1.000
    O365    O    0.60745   0.71082   0.84663   1.000
    O366    O    0.21993   0.07635   0.61795   1.000
    O367    O    0.34540   0.94645   0.63955   1.000
    O368    O    0.30988   0.89974   0.64757   1.000
    O369    O    0.13590   0.07635   0.61651   1.000
    O370    O    0.36108   0.34728   0.78830   1.000
    O371    O    0.71790   0.91580   0.38140   1.000
    O372    O    0.84401   0.04588   0.36034   1.000
    O373    O    0.80861   0.10025   0.35246   1.000
    O374    O    0.63387   0.92168   0.38288   1.000
    O375    O    0.85851   0.65255   0.21008   1.000
    O376    O    0.16000   0.36005   0.04705   1.000
    O377    O    0.28542   0.38170   0.91662   1.000
    O378    O    0.19572   0.35208   0.10118   1.000
    O379    O    0.36948   0.38309   0.92216   1.000
    O380    O    0.14451   0.21085   0.65275   1.000
    O381    O    0.65775   0.64057   0.94635   1.000
    O382    O    0.78292   0.61810   0.07573   1.000
    O383    O    0.69360   0.64990   0.89955   1.000
    O384    O    0.86696   0.61666   0.07573   1.000
    O385    O    0.64261   0.78882   0.34574   1.000
    O386    O    0.03379   0.41655   0.11828   1.000
    O387    O    0.90788   0.54648   0.13973   1.000
    O388    O    0.94340   0.60078   0.14772   1.000
    O389    O    0.11782   0.42250   0.11683   1.000
    O390    O    0.89343   0.15206   0.29011   1.000
    O391    O    0.53335   0.58376   0.88358   1.000
    O392    O    0.40984   0.45301   0.86108   1.000
    O393    O    0.44593   0.39915   0.85190   1.000
    O394    O    0.61741   0.57831   0.88523   1.000
    O395    O    0.39447   0.84798   0.70988   1.000
loop_
    _geom_bond_atom_site_label_1
    _geom_bond_atom_site_label_2
    _geom_bond_distance
    _geom_bond_site_symmetry_2
    _ccdc_geom_bond_type
    C151   O172      0.58697  1_554   S
    C113   O172      0.58697      .   S
    C153   O173      0.61943  1_554   S
    C113   O173      0.61943      .   S
    C82    O174      0.64338  1_655   S
    C147   O174      0.64338      .   S
    C82    O175      0.63414      .   S
    C148   O175      0.63414      .   S
    C82    O176      0.74751  1_554   S
    C76    O176      0.74751      .   S
    C112   O177      0.63106      .   S
    C145   O177      0.63106      .   S
    C112   O178      0.65184      .   S
    C144   O178      0.65184  1_556   S
    C112   O179      0.63008      .   S
    C146   O179      0.63008  1_556   S
    C147   O180      1.30734      .   S
    C4     O180      1.30734      .   S
    C148   O181      1.15637      .   S
    C11    O181      1.15637  1_455   S
    C84    O182      0.70118      .   S
    C89    O182      0.70118      .   S
    C84    O183      0.69872      .   S
    C85    O183      0.69872      .   S
    C84    O184      0.74736      .   S
    C90    O184      0.74736  1_556   S
    C32    O185      0.57253      .   S
    C85    O185      0.57253      .   S
    C35    O186      0.54439      .   S
    C89    O186      0.54439      .   S
    C4     O187      1.34468      .   S
    C163   O187      1.34468  1_655   S
    C89    O188      0.69814      .   S
    C88    O188      0.69814      .   S
    C85    O189      0.69931      .   S
    C86    O189      0.69931      .   S
    C27    O190      0.54471      .   S
    C73    O190      0.54471      .   S
    C160   O191      0.63032      .   S
    C114   O191      0.63032      .   S
    C26    O192      0.54480      .   S
    C72    O192      0.54480      .   S
    C158   O193      0.65158  1_655   S
    C114   O193      0.65158      .   S
    C114   O194      0.63094      .   S
    C159   O194      0.63094      .   S
    C141   O195      1.15599      .   S
    C11    O195      1.15599      .   S
    C141   O196      0.63431      .   S
    C74    O196      0.63431      .   S
    C6     O197      1.33631      .   S
    C156   O197      1.33631      .   S
    C6     O198      1.30652      .   S
    C161   O198      1.30652      .   S
    C73    O199      0.69741      .   S
    C72    O199      0.69741      .   S
    C73    O200      0.70154      .   S
    C68    O200      0.70154      .   S
    C11    O201      1.17297      .   S
    C122   O201      1.17297      .   S
    C11    O202      1.17086  1_455   S
    C164   O202      1.17086      .   S
    C72    O203      0.69805      .   S
    C71    O203      0.69805      .   S
    C163   O204      0.63132      .   S
    C99    O204      0.63132      .   S
    C74    O205      0.74726  1_545   S
    C68    O205      0.74726      .   S
    C74    O206      0.64317  1_455   S
    C140   O206      0.64317      .   S
    C88    O207      0.54479      .   S
    C34    O207      0.54479      .   S
    C88    O208      0.69804      .   S
    C87    O208      0.69804      .   S
    C86    O209      0.70208      .   S
    C87    O209      0.70208      .   S
    C86    O210      0.74814      .   S
    C91    O210      0.74814      .   S
    C68    O211      0.69845  1_455   S
    C69    O211      0.69845      .   S
    C156   O212      0.63118      .   S
    C91    O212      0.63118      .   S
    C71    O213      0.54437      .   S
    C25    O213      0.54437      .   S
    C71    O214      0.70194      .   S
    C70    O214      0.70194  1_655   S
    C122   O215      0.64706      .   S
    C51    O215      0.64706      .   S
    C13    O216      0.54375      .   S
    C47    O216      0.54375      .   S
    C99    O217      0.64709      .   S
    C164   O217      0.64709      .   S
    C99    O218      0.74777      .   S
    C94    O218      0.74777      .   S
    C87    O219      0.54435      .   S
    C33    O219      0.54435      .   S
    C140   O220      1.30682      .   S
    C3     O220      1.30682      .   S
    C91    O221      0.64694      .   S
    C157   O221      0.64694      .   S
    C69    O222      0.69941      .   S
    C70    O222      0.69941      .   S
    C69    O223      0.54416      .   S
    C24    O223      0.54416      .   S
    C36    O224      0.54396      .   S
    C93    O224      0.54396      .   S
    C70    O225      0.74807      .   S
    C75    O225      0.74807      .   S
    C94    O226      0.69942      .   S
    C93    O226      0.69942      .   S
    C94    O227      0.70206      .   S
    C95    O227      0.70206      .   S
    C93    O228      0.69884      .   S
    C92    O228      0.69884      .   S
    C51    O229      0.63093      .   S
    C121   O229      0.63093      .   S
    C51    O230      0.74807      .   S
    C46    O230      0.74807      .   S
    C143   O231      0.64706      .   S
    C75    O231      0.64706      .   S
    C143   O232      1.17346      .   S
    C9     O232      1.17346      .   S
    C47    O233      0.70227      .   S
    C46    O233      0.70227      .   S
    C47    O234      0.69842      .   S
    C48    O234      0.69842      .   S
    C161   O235      0.64345      .   S
    C98    O235      0.64345      .   S
    C14    O236      0.54482      .   S
    C48    O236      0.54482      .   S
    C75    O237      0.63145      .   S
    C142   O237      0.63145      .   S
    C37    O238      0.54429      .   S
    C95    O238      0.54429      .   S
    C157   O239      1.17474      .   S
    C9     O239      1.17474      .   S
    C95    O240      0.69793      .   S
    C96    O240      0.69793      .   S
    C121   O241      1.33853      .   S
    C3     O241      1.33853  1_655   S
    C46    O242      0.69936      .   S
    C45    O242      0.69936      .   S
    C92    O243      0.74709      .   S
    C98    O243      0.74709      .   S
    C92    O244      0.70155      .   S
    C97    O244      0.70155      .   S
    C48    O245      0.69734      .   S
    C49    O245      0.69734      .   S
    C98    O246      0.63412      .   S
    C162   O246      0.63412      .   S
    C142   O247      1.34074      .   S
    C1     O247      1.34074      .   S
    C96    O248      0.69730      .   S
    C97    O248      0.69730      .   S
    C96    O249      0.54483      .   S
    C38    O249      0.54483      .   S
    C9     O250      1.15841      .   S
    C162   O250      1.15841      .   S
    C9     O251      1.15797      .   S
    C127   O251      1.15797      .   S
    C97    O252      0.54469      .   S
    C39    O252      0.54469      .   S
    C138   O253      0.63099      .   S
    C111   O253      0.63099      .   S
    C111   O254      0.65195      .   S
    C137   O254      0.65195  1_565   S
    C111   O255      0.63007      .   S
    C139   O255      0.63007  1_565   S
    C45    O256      0.54388      .   S
    C12    O256      0.54388      .   S
    C45    O257      0.69864      .   S
    C44    O257      0.69864      .   S
    C49    O258      0.54476      .   S
    C15    O258      0.54476      .   S
    C49    O259      0.70162      .   S
    C44    O259      0.70162      .   S
    C1     O260      1.31333      .   S
    C126   O260      1.31333      .   S
    C124   O261      0.63072      .   S
    C109   O261      0.63072      .   S
    C44    O262      0.74728      .   S
    C50    O262      0.74728      .   S
    C127   O263      0.63417      .   S
    C58    O263      0.63417      .   S
    C126   O264      0.64370      .   S
    C58    O264      0.64370      .   S
    C109   O265      0.63010      .   S
    C125   O265      0.63010      .   S
    C109   O266      0.65210      .   S
    C123   O266      0.65210      .   S
    C116   O267      0.65153  1_455   S
    C108   O267      0.65153      .   S
    C58    O268      0.74749      .   S
    C52    O268      0.74749      .   S
    C118   O269      0.63034      .   S
    C108   O269      0.63034      .   S
    C50    O270      0.64371      .   S
    C119   O270      0.64371      .   S
    C50    O271      0.63412      .   S
    C120   O271      0.63412      .   S
    C108   O272      0.63077      .   S
    C117   O272      0.63077      .   S
    C119   O273      1.31225      .   S
    C0     O273      1.31225      .   S
    C120   O274      1.15856      .   S
    C8     O274      1.15856      .   S
    C52    O275      0.70162      .   S
    C57    O275      0.70162      .   S
    C52    O276      0.69862      .   S
    C53    O276      0.69862      .   S
    C19    O277      0.54477      .   S
    C57    O277      0.54477      .   S
    C16    O278      0.54387      .   S
    C53    O278      0.54387      .   S
    C0     O279      1.34109      .   S
    C135   O279      1.34109      .   S
    C57    O280      0.69743      .   S
    C56    O280      0.69743      .   S
    C53    O281      0.69947      .   S
    C54    O281      0.69947      .   S
    C43    O282      0.54471      .   S
    C105   O282      0.54471      .   S
    C132   O283      0.61752  1_545   S
    C110   O283      0.61752      .   S
    C130   O284      0.58280  1_545   S
    C110   O284      0.58280      .   S
    C42    O285      0.54479      .   S
    C104   O285      0.54479      .   S
    C110   O286      0.63100      .   S
    C131   O286      0.63100      .   S
    C169   O287      1.15359      .   S
    C8     O287      1.15359      .   S
    C169   O288      0.63450      .   S
    C106   O288      0.63450      .   S
    C2     O289      1.33315      .   S
    C128   O289      1.33315      .   S
    C2     O290      1.30949      .   S
    C133   O290      1.30949      .   S
    C8     O291      1.17502      .   S
    C150   O291      1.17502      .   S
    C8     O292      1.17005      .   S
    C136   O292      1.17005      .   S
    C105   O293      0.69746      .   S
    C104   O293      0.69746      .   S
    C105   O294      0.70155      .   S
    C100   O294      0.70155      .   S
    C104   O295      0.69814      .   S
    C103   O295      0.69814      .   S
    C135   O296      0.63111      .   S
    C67    O296      0.63111      .   S
    C106   O297      0.74710      .   S
    C100   O297      0.74710      .   S
    C106   O298      0.64286      .   S
    C168   O298      0.64286      .   S
    C56    O299      0.54482      .   S
    C18    O299      0.54482      .   S
    C56    O300      0.69814      .   S
    C55    O300      0.69814      .   S
    C54    O301      0.70195      .   S
    C55    O301      0.70195      .   S
    C54    O302      0.74803      .   S
    C59    O302      0.74803      .   S
    C100   O303      0.69853      .   S
    C101   O303      0.69853      .   S
    C128   O304      0.63103      .   S
    C59    O304      0.63103      .   S
    C150   O305      0.64674      .   S
    C83    O305      0.64674      .   S
    C103   O306      0.54437      .   S
    C41    O306      0.54437      .   S
    C103   O307      0.70197      .   S
    C102   O307      0.70197      .   S
    C29    O308      0.54435      .   S
    C79    O308      0.54435      .   S
    C67    O309      0.64700      .   S
    C136   O309      0.64700      .   S
    C67    O310      0.74811      .   S
    C62    O310      0.74811      .   S
    C55    O311      0.54434      .   S
    C17    O311      0.54434      .   S
    C168   O312      1.30694      .   S
    C7     O312      1.30694      .   S
    C59    O313      0.64695      .   S
    C129   O313      0.64695      .   S
    C20    O314      0.54392      .   S
    C61    O314      0.54392      .   S
    C101   O315      0.69921      .   S
    C102   O315      0.69921      .   S
    C101   O316      0.54388      .   S
    C40    O316      0.54388      .   S
    C102   O317      0.74778      .   S
    C107   O317      0.74778      .   S
    C62    O318      0.69953      .   S
    C61    O318      0.69953      .   S
    C62    O319      0.70165      .   S
    C63    O319      0.70165      .   S
    C61    O320      0.69885      .   S
    C60    O320      0.69885      .   S
    C83    O321      0.63141      .   S
    C149   O321      0.63141      .   S
    C83    O322      0.74786      .   S
    C78    O322      0.74786      .   S
    C171   O323      0.64696      .   S
    C107   O323      0.64696      .   S
    C171   O324      1.17077      .   S
    C10    O324      1.17077      .   S
    C79    O325      0.70189      .   S
    C78    O325      0.70189  1_455   S
    C79    O326      0.69800      .   S
    C80    O326      0.69800      .   S
    C133   O327      0.64350      .   S
    C66    O327      0.64350      .   S
    C107   O328      0.63123      .   S
    C170   O328      0.63123      .   S
    C30    O329      0.54480      .   S
    C80    O329      0.54480      .   S
    C21    O330      0.54436      .   S
    C63    O330      0.54436      .   S
    C63    O331      0.69840      .   S
    C64    O331      0.69840      .   S
    C149   O332      1.33685      .   S
    C7     O332      1.33685      .   S
    C129   O333      1.17409      .   S
    C10    O333      1.17409      .   S
    C60    O334      0.74745      .   S
    C66    O334      0.74745  1_565   S
    C60    O335      0.70156      .   S
    C65    O335      0.70156      .   S
    C78    O336      0.69954      .   S
    C77    O336      0.69954      .   S
    C80    O337      0.69733      .   S
    C81    O337      0.69733      .   S
    C66    O338      0.63416      .   S
    C134   O338      0.63416      .   S
    C170   O339      1.34245      .   S
    C5     O339      1.34245      .   S
    C64    O340      0.69739      .   S
    C65    O340      0.69739      .   S
    C64    O341      0.54477      .   S
    C22    O341      0.54477      .   S
    C10    O342      1.15885      .   S
    C134   O342      1.15885      .   S
    C10    O343      1.16213      .   S
    C155   O343      1.16213      .   S
    C65    O344      0.54473      .   S
    C23    O344      0.54473      .   S
    C166   O345      0.63114      .   S
    C115   O345      0.63114      .   S
    C115   O346      0.65187      .   S
    C165   O346      0.65187      .   S
    C115   O347      0.63000      .   S
    C167   O347      0.63000      .   S
    C77    O348      0.54393      .   S
    C28    O348      0.54393      .   S
    C77    O349      0.69862      .   S
    C76    O349      0.69862  1_655   S
    C81    O350      0.54476      .   S
    C31    O350      0.54476      .   S
    C81    O351      0.70163      .   S
    C76    O351      0.70163      .   S
    C5     O352      1.31244      .   S
    C154   O352      1.31244      .   S
    C152   O353      0.63134      .   S
    C113   O353      0.63134      .   S
    C155   O354      0.63385      .   S
    C90    O354      0.63385      .   S
    C154   O355      0.64408      .   S
    C90    O355      0.64408      .   S
    C116   O356      1.46134      .   S
    C0     O356      1.46134      .   S
    C116   O357      1.46505  1_455   S
    C3     O357      1.46505      .   S
    C117   O358      1.40598  1_655   S
    C0     O358      1.40598      .   S
    C118   O359      1.41621      .   S
    C3     O359      1.41621      .   S
    C122   O360      1.37518      .   S
    C4     O360      1.37518      .   S
    C123   O361      1.45716      .   S
    C1     O361      1.45716      .   S
    C123   O362      1.46210      .   S
    C2     O362      1.46210      .   S
    C124   O363      1.40669      .   S
    C1     O363      1.40669      .   S
    C125   O364      1.41879      .   S
    C2     O364      1.41879      .   S
    C129   O365      1.37543      .   S
    C5     O365      1.37543      .   S
    C130   O366      1.58026      .   S
    C0     O366      1.58026      .   S
    C130   O367      1.36179  1_545   S
    C2     O367      1.36179      .   S
    C131   O368      1.39485      .   S
    C2     O368      1.39485      .   S
    C132   O369      1.45310      .   S
    C0     O369      1.45310      .   S
    C136   O370      1.38448      .   S
    C7     O370      1.38448      .   S
    C137   O371      1.45832      .   S
    C1     O371      1.45832      .   S
    C137   O372      1.46777  1_565   S
    C3     O372      1.46777      .   S
    C138   O373      1.40021      .   S
    C3     O373      1.40021      .   S
    C139   O374      1.42509      .   S
    C1     O374      1.42509      .   S
    C143   O375      1.37881      .   S
    C6     O375      1.37881      .   S
    C144   O376      1.47235  1_556   S
    C4     O376      1.47235      .   S
    C144   O377      1.45832      .   S
    C7     O377      1.45832      .   S
    C145   O378      1.40222      .   S
    C4     O378      1.40222      .   S
    C146   O379      1.42503      .   S
    C7     O379      1.42503      .   S
    C150   O380      1.37256      .   S
    C0     O380      1.37256      .   S
    C151   O381      1.36909  1_554   S
    C5     O381      1.36909      .   S
    C151   O382      1.57010      .   S
    C6     O382      1.57010      .   S
    C152   O383      1.40165      .   S
    C5     O383      1.40165      .   S
    C153   O384      1.44674      .   S
    C6     O384      1.44674      .   S
    C157   O385      1.37452      .   S
    C1     O385      1.37452      .   S
    C158   O386      1.45747  1_655   S
    C4     O386      1.45747      .   S
    C158   O387      1.47109      .   S
    C6     O387      1.47109      .   S
    C159   O388      1.39559  1_455   S
    C6     O388      1.39559      .   S
    C160   O389      1.41830      .   S
    C4     O389      1.41830      .   S
    C164   O390      1.37933      .   S
    C3     O390      1.37933      .   S
    C165   O391      1.45494      .   S
    C5     O391      1.45494      .   S
    C165   O392      1.47055      .   S
    C7     O392      1.47055      .   S
    C166   O393      1.39533      .   S
    C7     O393      1.39533      .   S
    C167   O394      1.42744      .   S
    C5     O394      1.42744      .   S
    C171   O395      1.37854      .   S
    C2     O395      1.37854      .   S
