# CIF file generated by openbabel 2.4.90, see http://openbabel.sf.net
data_I
_chemical_name_common ''
_cell_length_a 13.083
_cell_length_b 18.27
_cell_length_c 18.307
_cell_angle_alpha 89.723
_cell_angle_beta 89.881
_cell_angle_gamma 90.08
_space_group_name_H-M_alt 'P 1'
_space_group_name_Hall 'P 1'
loop_
    _symmetry_equiv_pos_as_xyz
    x,y,z
loop_
    _atom_site_label
    _atom_site_type_symbol
    _atom_site_fract_x
    _atom_site_fract_y
    _atom_site_fract_z
    _atom_site_occupancy
    N0      N    0.30206   0.31234   0.34079   1.000
    N1      N    0.31238   0.36761   0.02612   1.000
    N2      N    0.55351   0.15985   0.80979   1.000
    N3      N    0.80027   0.68743   0.65815   1.000
    N4      N    0.19988   0.66001   0.68965   1.000
    N5      N    0.95172   0.18925   0.84152   1.000
    N6      N    0.05976   0.52598   0.13236   1.000
    N7      N    0.70014   0.33994   0.31143   1.000
    N8      N    0.69162   0.02567   0.36765   1.000
    N9      N    0.05137   0.84107   0.18831   1.000
    N10     N    0.44995   0.81198   0.15770   1.000
    N11     N    0.19348   0.97431   0.63240   1.000
    N12     N    0.81013   0.63349   0.97374   1.000
    N13     N    0.94262   0.13049   0.52681   1.000
    N14     N    0.44100   0.86867   0.47291   1.000
    N15     N    0.56149   0.47427   0.86947   1.000
    Zr16    Zr   0.50096   0.82512   0.82383   1.000
    O17     O    0.43575   0.85341   0.68198   1.000
    O18     O    0.37891   0.86414   0.73482   1.000
    O19     O    0.40555   0.89917   0.72881   1.000
    O20     O    0.49879   0.85115   0.68553   1.000
    O21     O    0.52087   0.96158   0.81686   1.000
    O22     O    0.48167   0.81861   0.96006   1.000
    O23     O    0.62000   0.77420   0.75425   1.000
    O24     O    0.38112   0.75596   0.77443   1.000
    O25     O    0.62393   0.73676   0.86340   1.000
    O26     O    0.59704   0.72976   0.89850   1.000
    O27     O    0.50374   0.68716   0.85143   1.000
    O28     O    0.56679   0.68307   0.85266   1.000
    Zr29    Zr   0.75037   0.67490   0.32376   1.000
    O30     O    0.73159   0.53831   0.31749   1.000
    O31     O    0.87017   0.74447   0.27387   1.000
    O32     O    0.63094   0.72558   0.25411   1.000
    O33     O    0.84676   0.59532   0.22881   1.000
    O34     O    0.81607   0.64796   0.18081   1.000
    O35     O    0.87340   0.63605   0.23481   1.000
    O36     O    0.75304   0.64903   0.18081   1.000
    O37     O    0.76892   0.68121   0.46013   1.000
    O38     O    0.74789   0.81257   0.35020   1.000
    O39     O    0.65436   0.77030   0.40297   1.000
    O40     O    0.62648   0.76431   0.36280   1.000
    O41     O    0.68486   0.81698   0.35131   1.000
    Zr42    Zr   0.00124   0.17576   0.17613   1.000
    O43     O    0.12095   0.22610   0.24535   1.000
    O44     O    0.90485   0.09552   0.27113   1.000
    O45     O    0.93625   0.14706   0.31804   1.000
    O46     O    0.99932   0.14834   0.31423   1.000
    O47     O    0.87830   0.13630   0.26522   1.000
    O48     O    0.12512   0.26492   0.13680   1.000
    O49     O    0.06669   0.31773   0.14855   1.000
    O50     O    0.00367   0.31327   0.14964   1.000
    O51     O    0.09833   0.27089   0.09621   1.000
    O52     O    0.98275   0.18273   0.03966   1.000
    O53     O    0.88138   0.24455   0.22598   1.000
    O54     O    0.01993   0.03930   0.18234   1.000
    Zr55    Zr   0.25256   0.32515   0.67521   1.000
    O56     O    0.37573   0.36409   0.76461   1.000
    O57     O    0.25534   0.35100   0.81314   1.000
    O58     O    0.34866   0.40448   0.77150   1.000
    O59     O    0.31839   0.35204   0.81731   1.000
    O60     O    0.13300   0.27487   0.74483   1.000
    O61     O    0.23287   0.46173   0.68248   1.000
    O62     O    0.37237   0.25588   0.72468   1.000
    O63     O    0.27098   0.31875   0.53885   1.000
    O64     O    0.24998   0.18166   0.64910   1.000
    O65     O    0.15622   0.22874   0.59616   1.000
    O66     O    0.12864   0.23562   0.63636   1.000
    O67     O    0.18696   0.18166   0.64802   1.000
loop_
    _geom_bond_atom_site_label_1
    _geom_bond_atom_site_label_2
    _geom_bond_distance
    _geom_bond_site_symmetry_2
    _ccdc_geom_bond_type
    Zr16   O17       2.78134      .   S
    N14    O17       3.83672      .   S
    Zr16   O18       2.39084      .   S
    N11    O18       3.66711      .   S
    Zr16   O19       2.53092      .   S
    N11    O19       3.56436      .   S
    Zr16   O20       2.57408      .   S
    N14    O20       3.97817      .   S
    Zr16   O21       2.50894      .   S
    N2     O21       3.64856  1_545   S
    Zr16   O22       2.50837      .   S
    N10    O22       3.64251  1_554   S
    Zr16   O23       2.21823      .   S
    N3     O23       3.34523      .   S
    Zr16   O24       2.20998      .   S
    N4     O24       3.33683      .   S
    Zr16   O25       2.39172      .   S
    N12    O25       3.68382      .   S
    Zr16   O26       2.54451      .   S
    N12    O26       3.57338      .   S
    Zr16   O27       2.56870      .   S
    N15    O27       3.97548      .   S
    Zr16   O28       2.78404      .   S
    N15    O28       3.82615      .   S
    Zr29   O30       2.51040      .   S
    N7     O30       3.64930      .   S
    Zr29   O31       2.20989      .   S
    N9     O31       3.33676  1_455   S
    Zr29   O32       2.21931      .   S
    N10    O32       3.34887      .   S
    Zr29   O33       2.59735      .   S
    N6     O33       3.53547  1_455   S
    Zr29   O34       2.79893      .   S
    N12    O34       3.80230  1_556   S
    Zr29   O35       2.39797      .   S
    N6     O35       3.67926  1_455   S
    Zr29   O36       2.66169      .   S
    N12    O36       3.87409  1_556   S
    Zr29   O37       2.51192      .   S
    N3     O37       3.65151      .   S
    Zr29   O38       2.56389      .   S
    N8     O38       3.97746  1_545   S
    Zr29   O39       2.59632      .   S
    N14    O39       3.56133      .   S
    Zr29   O40       2.41243      .   S
    N14    O40       3.69014      .   S
    Zr29   O41       2.78279      .   S
    N8     O41       3.82670  1_545   S
    Zr42   O43       2.21812      .   S
    N0     O43       3.34415      .   S
    Zr42   O44       2.59320  1_455   S
    N8     O44       3.53294      .   S
    Zr42   O45       2.77907  1_455   S
    N13    O45       3.83359      .   S
    Zr42   O46       2.57504  1_455   S
    N13    O46       3.97200      .   S
    Zr42   O47       2.39602  1_455   S
    N8     O47       3.67393      .   S
    Zr42   O48       2.40312      .   S
    N1     O48       3.68219      .   S
    Zr42   O49       2.77403      .   S
    N6     O49       3.81617      .   S
    Zr42   O50       2.55650      .   S
    N6     O50       3.96501      .   S
    Zr42   O51       2.59546      .   S
    N1     O51       3.54422      .   S
    Zr42   O52       2.51319  1_455   S
    N5     O52       3.65225  1_556   S
    Zr42   O53       2.20950  1_455   S
    N7     O53       3.33609      .   S
    Zr42   O54       2.50745      .   S
    N9     O54       3.64664  1_565   S
    Zr55   O56       2.40835      .   S
    N15    O56       3.69959      .   S
    Zr55   O57       2.57141      .   S
    N1     O57       3.98420  1_554   S
    Zr55   O58       2.61095      .   S
    N15    O58       3.55374      .   S
    Zr55   O59       2.78750      .   S
    N1     O59       3.83536  1_554   S
    Zr55   O60       2.21155      .   S
    N5     O60       3.33926  1_655   S
    Zr55   O61       2.51294      .   S
    N4     O61       3.65186      .   S
    Zr55   O62       2.20890      .   S
    N2     O62       3.33501      .   S
    Zr55   O63       2.51079      .   S
    N0     O63       3.65033      .   S
    Zr55   O64       2.66726      .   S
    N11    O64       3.87251  1_565   S
    Zr55   O65       2.60998      .   S
    N13    O65       3.55887  1_655   S
    Zr55   O66       2.41218      .   S
    N13    O66       3.69844  1_655   S
    Zr55   O67       2.80450      .   S
    N11    O67       3.80164  1_565   S
