# CIF file generated by openbabel 2.4.90, see http://openbabel.sf.net
data_I
_chemical_name_common 'VESTA_phase_1'
_cell_length_a 14.308
_cell_length_b 15.844
_cell_length_c 15.845
_cell_angle_alpha 78.291
_cell_angle_beta 63.23
_cell_angle_gamma 63.229
_space_group_name_H-M_alt 'P 1'
_space_group_name_Hall 'P 1'
loop_
    _symmetry_equiv_pos_as_xyz
    x,y,z
loop_
    _atom_site_label
    _atom_site_type_symbol
    _atom_site_fract_x
    _atom_site_fract_y
    _atom_site_fract_z
    _atom_site_occupancy
    Ca0     Ca   0.53510   0.99954   0.42965   1.000
    Ca1     Ca   0.96536   0.99960   0.56946   1.000
    Ca2     Ca   0.03510   0.42979   0.99945   1.000
    Ca3     Ca   0.46538   0.56957   0.99950   1.000
    Cd4     Cd   0.23660   0.02678   0.49994   1.000
    Cd5     Cd   0.76299   0.97355   0.49977   1.000
    Cd6     Cd   0.26293   0.49993   0.97345   1.000
    Cd7     Cd   0.73658   0.50007   0.02672   1.000
    H8      H    0.61670   0.34285   0.26244   1.000
    H9      H    0.46046   0.20692   0.40087   1.000
    H10     H    0.50651   0.40376   0.17215   1.000
    H11     H    0.27263   0.27907   0.22614   1.000
    H12     H    0.22145   0.65763   0.73707   1.000
    H13     H    0.06759   0.79306   0.59851   1.000
    H14     H    0.08225   0.59672   0.82750   1.000
    H15     H    0.77750   0.72102   0.77402   1.000
    H16     H    0.12112   0.26357   0.65566   1.000
    H17     H    0.13939   0.40143   0.79205   1.000
    H18     H    0.32126   0.17286   0.59511   1.000
    H19     H    0.50081   0.22509   0.72154   1.000
    H20     H    0.04087   0.73781   0.34166   1.000
    H21     H    0.33287   0.59899   0.20640   1.000
    H22     H    0.09008   0.82810   0.40265   1.000
    H23     H    0.44856   0.77327   0.27945   1.000
    H24     H    0.72150   0.73710   0.65752   1.000
    H25     H    0.56757   0.59859   0.79300   1.000
    H26     H    0.58234   0.82749   0.59656   1.000
    H27     H    0.27753   0.77412   0.72091   1.000
    H28     H    0.11675   0.26251   0.34277   1.000
    H29     H    0.96052   0.40095   0.20682   1.000
    H30     H    0.00000   0.17223   0.40368   1.000
    H31     H    0.77263   0.22626   0.27900   1.000
    H32     H    0.54091   0.34170   0.73776   1.000
    H33     H    0.83290   0.20649   0.59892   1.000
    H34     H    0.59012   0.40273   0.82802   1.000
    H35     H    0.94860   0.27952   0.77300   1.000
    H36     H    0.62112   0.65573   0.26350   1.000
    H37     H    0.63939   0.79213   0.40135   1.000
    H38     H    0.82127   0.59516   0.17280   1.000
    H39     H    0.00000   0.72161   0.22500   1.000
    C40     C    0.30889   0.16672   0.37484   1.000
    C41     C    0.35573   0.40409   0.11392   1.000
    C42     C    0.36194   0.23354   0.31872   1.000
    C43     C    0.44162   0.24306   0.34041   1.000
    C44     C    0.49552   0.30330   0.28718   1.000
    C45     C    0.46683   0.35551   0.21306   1.000
    C46     C    0.38683   0.34624   0.19185   1.000
    C47     C    0.33434   0.28507   0.24402   1.000
    C48     C    0.84992   0.83319   0.62489   1.000
    C49     C    0.87392   0.59599   0.88601   1.000
    C50     C    0.91367   0.76653   0.68100   1.000
    C51     C    0.02452   0.75709   0.65920   1.000
    C52     C    0.08552   0.69707   0.71242   1.000
    C53     C    0.03512   0.64486   0.78664   1.000
    C54     C    0.92471   0.65399   0.80803   1.000
    C55     C    0.86305   0.71508   0.75596   1.000
    C56     C    0.31656   0.37430   0.83332   1.000
    C57     C    0.52983   0.11365   0.59576   1.000
    C58     C    0.31946   0.31841   0.76631   1.000
    C59     C    0.21835   0.34072   0.75616   1.000
    C60     C    0.21758   0.28786   0.69557   1.000
    C61     C    0.32007   0.21346   0.64360   1.000
    C62     C    0.42103   0.19164   0.65354   1.000
    C63     C    0.42142   0.24343   0.71508   1.000
    C64     C    0.52450   0.62471   0.16683   1.000
    C65     C    0.24032   0.88599   0.40383   1.000
    C66     C    0.40473   0.68094   0.23347   1.000
    C67     C    0.31556   0.65946   0.24260   1.000
    C68     C    0.20149   0.71284   0.30251   1.000
    C69     C    0.17799   0.78699   0.35474   1.000
    C70     C    0.26721   0.80799   0.34591   1.000
    C71     C    0.38084   0.75561   0.28511   1.000
    C72     C    0.34989   0.62502   0.83310   1.000
    C73     C    0.37403   0.88601   0.59580   1.000
    C74     C    0.41368   0.68117   0.76645   1.000
    C75     C    0.52451   0.65927   0.75702   1.000
    C76     C    0.58554   0.71248   0.69699   1.000
    C77     C    0.53518   0.78666   0.64472   1.000
    C78     C    0.42479   0.80806   0.65380   1.000
    C79     C    0.36308   0.75604   0.71497   1.000
    C80     C    0.80890   0.37495   0.16660   1.000
    C81     C    0.85571   0.11401   0.40390   1.000
    C82     C    0.86196   0.31883   0.23346   1.000
    C83     C    0.94166   0.34050   0.24298   1.000
    C84     C    0.99554   0.28727   0.30323   1.000
    C85     C    0.96684   0.21315   0.35544   1.000
    C86     C    0.88684   0.19195   0.34610   1.000
    C87     C    0.83435   0.24413   0.28499   1.000
    C88     C    0.02456   0.16690   0.62464   1.000
    C89     C    0.74033   0.40392   0.88590   1.000
    C90     C    0.90477   0.23354   0.68087   1.000
    C91     C    0.81560   0.24268   0.65930   1.000
    C92     C    0.70153   0.30259   0.71277   1.000
    C93     C    0.67803   0.35482   0.78692   1.000
    C94     C    0.76725   0.34599   0.80792   1.000
    C95     C    0.88088   0.28518   0.75554   1.000
    C96     C    0.81656   0.83339   0.37423   1.000
    C97     C    0.02988   0.59588   0.11356   1.000
    C98     C    0.81947   0.76637   0.31835   1.000
    C99     C    0.71836   0.75623   0.34065   1.000
    C100    C    0.71759   0.69563   0.28778   1.000
    C101    C    0.82009   0.64372   0.21339   1.000
    C102    C    0.92104   0.65360   0.19157   1.000
    C103    C    0.92142   0.71514   0.24337   1.000
    O104    O    0.36641   0.09717   0.41661   1.000
    O105    O    0.21366   0.17454   0.38311   1.000
    O106    O    0.30105   0.38437   0.08196   1.000
    O107    O    0.38550   0.47361   0.08208   1.000
    O108    O    0.57208   0.30859   0.31133   1.000
    O109    O    0.87965   0.90280   0.58309   1.000
    O110    O    0.77085   0.82520   0.61663   1.000
    O111    O    0.76756   0.61590   0.91859   1.000
    O112    O    0.94173   0.52619   0.91720   1.000
    O113    O    0.19138   0.69193   0.68821   1.000
    O114    O    0.21725   0.41626   0.90269   1.000
    O115    O    0.40362   0.38222   0.82573   1.000
    O116    O    0.61627   0.08146   0.61568   1.000
    O117    O    0.53195   0.08207   0.52603   1.000
    O118    O    0.11721   0.31263   0.68952   1.000
    O119    O    0.53650   0.58321   0.09703   1.000
    O120    O    0.61185   0.61616   0.17497   1.000
    O121    O    0.31446   0.91815   0.38421   1.000
    O122    O    0.14112   0.91771   0.47328   1.000
    O123    O    0.11966   0.68887   0.30748   1.000
    O124    O    0.37968   0.58315   0.90269   1.000
    O125    O    0.27073   0.61685   0.82521   1.000
    O126    O    0.26769   0.91856   0.61560   1.000
    O127    O    0.44186   0.91719   0.52601   1.000
    O128    O    0.69137   0.68829   0.69191   1.000
    O129    O    0.86641   0.41672   0.09709   1.000
    O130    O    0.71366   0.38322   0.17449   1.000
    O131    O    0.80102   0.08211   0.38420   1.000
    O132    O    0.88547   0.08209   0.47349   1.000
    O133    O    0.07210   0.31142   0.30853   1.000
    O134    O    0.03655   0.09711   0.58310   1.000
    O135    O    0.11192   0.17502   0.61608   1.000
    O136    O    0.81446   0.38436   0.91807   1.000
    O137    O    0.64110   0.47335   0.91762   1.000
    O138    O    0.61970   0.30758   0.68880   1.000
    O139    O    0.71728   0.90283   0.41609   1.000
    O140    O    0.90359   0.82576   0.38226   1.000
    O141    O    0.11624   0.61591   0.08136   1.000
    O142    O    0.03214   0.52609   0.08190   1.000
    O143    O    0.61721   0.68959   0.31255   1.000
loop_
    _geom_bond_atom_site_label_1
    _geom_bond_atom_site_label_2
    _geom_bond_distance
    _geom_bond_site_symmetry_2
    _ccdc_geom_bond_type
    Cd7    O119      2.34458      .   S
    Cd7    O129      2.34443      .   S
    Cd7    O136      2.29757  1_554   S
    Cd7    O111      2.29625  1_554   S
    O141   C97       1.26785      .   S
    O141   Cd6       2.29650  1_554   S
    O142   C97       1.28607      .   S
    O142   Ca2       2.17653  1_554   S
    O106   C41       1.26779      .   S
    O106   Cd6       2.29633  1_554   S
    O107   C41       1.28570      .   S
    O107   Ca3       2.17717  1_554   S
    O119   C64       1.30666      .   S
    O129   C80       1.30627      .   S
    C97    C102      1.49371  1_455   S
    C41    C46       1.49367      .   S
    C80    O130      1.25772      .   S
    C80    C82       1.49114      .   S
    C64    O120      1.25800      .   S
    C64    C66       1.49062      .   S
    H10    C45       1.08869      .   S
    H38    C101      1.08870      .   S
    C102   C101      1.40090      .   S
    C102   C103      1.39933      .   S
    C46    C45       1.40094      .   S
    C46    C47       1.39931      .   S
    H21    C67       1.09062      .   S
    H29    C83       1.09058      .   S
    C45    C44       1.40220      .   S
    C101   C100      1.40224      .   S
    H39    C103      1.07522  1_455   S
    H11    C47       1.08664      .   S
    C82    C83       1.40336      .   S
    C82    C87       1.40069      .   S
    C66    C67       1.40331      .   S
    C66    C71       1.40092      .   S
    C67    C68       1.40257      .   S
    C83    C84       1.40265      .   S
    C103   C98       1.40065      .   S
    C47    C42       1.40069      .   S
    H8     O108      0.99920      .   S
    H36    O143      0.99911      .   S
    H31    C87       1.08658      .   S
    H23    C71       1.08669      .   S
    C87    C86       1.39857      .   S
    C71    C70       1.39939      .   S
    C44    O108      1.35151      .   S
    C44    C43       1.40266      .   S
    C100   O143      1.35160      .   S
    C100   C99       1.40278      .   S
    C68    O123      1.35144      .   S
    C68    C69       1.40223      .   S
    C84    O133      1.35163  1_655   S
    C84    C85       1.40229      .   S
    O123   H20       0.99922      .   S
    O133   H28       0.99930      .   S
    C98    C99       1.40342      .   S
    C98    C96       1.49054      .   S
    C42    C43       1.40336      .   S
    C42    C40       1.49054      .   S
    C43    H9        1.09052      .   S
    C99    H37       1.09057      .   S
    C70    C69       1.40095      .   S
    C70    C65       1.49377      .   S
    C86    C85       1.40143      .   S
    C86    C81       1.49358      .   S
    C69    H22       1.08863      .   S
    C85    H30       1.03834  1_655   S
    C96    O140      1.25779      .   S
    C96    O139      1.30680      .   S
    C40    O105      1.25804      .   S
    C40    O104      1.30661      .   S
    O131   C81       1.26724      .   S
    O131   Cd5       2.29671  1_545   S
    O121   C65       1.26776      .   S
    O121   Cd4       2.29767  1_565   S
    C65    O122      1.28572      .   S
    C81    O132      1.28665      .   S
    O139   Cd5       2.34207      .   S
    O104   Cd4       2.34434      .   S
    Ca0    O127      2.17664      .   S
    Ca0    O117      2.17700  1_565   S
    O122   Ca1       2.17731  1_455   S
    O132   Ca1       2.17727  1_545   S
    Cd5    O109      2.34182      .   S
    Cd5    O116      2.29596  1_565   S
    Cd4    O134      2.34445      .   S
    Cd4    O126      2.29522  1_545   S
    O127   C73       1.28542      .   S
    O117   C57       1.28551      .   S
    O109   C48       1.30694      .   S
    O134   C88       1.30697      .   S
    H18    C61       1.08780      .   S
    C57    O116      1.26783      .   S
    C57    C62       1.49359      .   S
    C73    O126      1.26815      .   S
    C73    C78       1.49326      .   S
    H26    C77       1.08861      .   S
    H13    C51       1.09059      .   S
    H33    C91       1.08940      .   S
    O135   C88       1.25795      .   S
    O110   C48       1.25777      .   S
    C88    C90       1.49074  1_455   S
    C48    C50       1.48981      .   S
    C61    C62       1.40145      .   S
    C61    C60       1.40250      .   S
    C77    C78       1.40107      .   S
    C77    C76       1.40217      .   S
    C62    C63       1.39926      .   S
    C78    C79       1.39954      .   S
    H16    O118      0.99905      .   S
    H24    O128      0.99922      .   S
    C51    C50       1.40384  1_455   S
    C51    C52       1.40249      .   S
    C91    C90       1.40417      .   S
    C91    C92       1.40285      .   S
    C90    C95       1.40093      .   S
    C50    C55       1.40135      .   S
    O113   C52       1.35139      .   S
    O113   H12       0.99921      .   S
    O138   C92       1.35136      .   S
    O138   H32       0.99922      .   S
    O118   C60       1.35159      .   S
    O128   C76       1.35142      .   S
    C60    C59       1.40274      .   S
    C76    C75       1.40258      .   S
    C52    C53       1.40213      .   S
    C92    C93       1.40227      .   S
    C79    H27       1.08663      .   S
    C79    C74       1.40079      .   S
    C63    H19       1.08660      .   S
    C63    C58       1.40062      .   S
    C95    H35       1.08469      .   S
    C95    C94       1.39939      .   S
    C55    H15       1.08663      .   S
    C55    C54       1.39940      .   S
    C59    C58       1.40339      .   S
    C59    H17       1.09056      .   S
    C75    C74       1.40334      .   S
    C75    H25       1.09053      .   S
    C58    C56       1.49064      .   S
    C74    C72       1.49046      .   S
    C53    C54       1.40103  1_455   S
    C53    H14       1.08867      .   S
    C93    C94       1.40090      .   S
    C93    H34       1.08860      .   S
    C94    C89       1.49363      .   S
    C54    C49       1.49377      .   S
    O125   C72       1.25749      .   S
    O115   C56       1.25770      .   S
    C72    O124      1.30742      .   S
    C56    O114      1.30684      .   S
    C89    O137      1.28573      .   S
    C89    O136      1.26788      .   S
    C49    O112      1.28534      .   S
    C49    O111      1.26792      .   S
    O124   Cd6       2.34167      .   S
    O114   Cd6       2.34199      .   S
    O112   Ca2       2.17683  1_655   S
    O137   Ca3       2.17717      .   S
    O104   Ca0       2.28417  1_545   S
    O109   Ca1       2.28580      .   S
    O114   Ca2       2.28468      .   S
    O119   Ca3       2.28495  1_554   S
    O124   Ca3       2.28594      .   S
    O129   Ca2       2.28438  1_654   S
    O134   Ca1       2.28515  1_445   S
    O139   Ca0       2.28463      .   S
