# CIF file generated by openbabel 2.4.90, see http://openbabel.sf.net
data_I
_chemical_name_common ''
_cell_length_a 12.365
_cell_length_b 20.163
_cell_length_c 20.18
_cell_angle_alpha 102.302
_cell_angle_beta 94.912
_cell_angle_gamma 94.696
_space_group_name_H-M_alt 'P 1'
_space_group_name_Hall 'P 1'
loop_
    _symmetry_equiv_pos_as_xyz
    x,y,z
loop_
    _atom_site_label
    _atom_site_type_symbol
    _atom_site_fract_x
    _atom_site_fract_y
    _atom_site_fract_z
    _atom_site_occupancy
    Zn0     Zn   0.80517   0.01648   0.52665   1.000
    Zn1     Zn   0.41201   0.33328   0.60583   1.000
    Zn2     Zn   0.50489   0.48363   0.75530   1.000
    Zn3     Zn   0.11599   0.56046   0.07286   1.000
    Zn4     Zn   0.30521   0.52594   0.01643   1.000
    Zn5     Zn   0.91217   0.60581   0.33317   1.000
    Zn6     Zn   0.00503   0.75533   0.48350   1.000
    H7      H    0.49825   0.19955   0.53473   1.000
    H8      H    0.56519   0.21851   0.61940   1.000
    H9      H    0.53804   0.13972   0.69346   1.000
    H10     H    0.45261   0.06168   0.66272   1.000
    H11     H    0.36257   0.03485   0.54802   1.000
    H12     H    0.38283   0.09268   0.49310   1.000
    H13     H    0.31449   0.24745   0.70115   1.000
    H14     H    0.45866   0.24606   0.71573   1.000
    H15     H    0.19923   0.14142   0.65926   1.000
    H16     H    0.25849   0.06241   0.64193   1.000
    H17     H    0.30369   0.20015   0.51526   1.000
    H18     H    0.22441   0.22018   0.58590   1.000
    H19     H    0.85883   0.87194   0.46533   1.000
    H20     H    0.91418   0.88852   0.55247   1.000
    H21     H    0.98458   0.03067   0.43247   1.000
    H22     H    0.90035   0.95334   0.39585   1.000
    H23     H    0.02812   0.99435   0.60216   1.000
    H24     H    0.05938   0.05403   0.55079   1.000
    H25     H    0.97939   0.84646   0.37561   1.000
    H26     H    0.12184   0.84447   0.39777   1.000
    H27     H    0.17639   0.02837   0.46334   1.000
    H28     H    0.23475   0.94870   0.44792   1.000
    H29     H    0.19561   0.86807   0.51663   1.000
    H30     H    0.10603   0.88636   0.58000   1.000
    H31     H    0.66820   0.84913   0.35131   1.000
    Zn32    Zn   0.61578   0.07295   0.55951   1.000
    H33     H    0.26866   0.86490   0.30965   1.000
    H34     H    0.38595   0.95253   0.39836   1.000
    H35     H    0.65163   0.74485   0.25814   1.000
    H36     H    0.53489   0.65751   0.16780   1.000
    H37     H    0.25062   0.75665   0.21955   1.000
    H38     H    0.92763   0.14974   0.39946   1.000
    H39     H    0.98361   0.24686   0.34721   1.000
    H40     H    0.64785   0.24712   0.46788   1.000
    H41     H    0.95149   0.36122   0.32410   1.000
    H42     H    0.68320   0.46300   0.40475   1.000
    H43     H    0.62017   0.36173   0.44952   1.000
    H44     H    0.12441   0.33742   0.62359   1.000
    H45     H    0.98289   0.51010   0.80226   1.000
    H46     H    0.18162   0.50683   0.79705   1.000
    H47     H    0.93357   0.29381   0.57351   1.000
    H48     H    0.73484   0.29722   0.57840   1.000
    H49     H    0.79184   0.46102   0.75703   1.000
    H50     H    0.77509   0.84236   0.62081   1.000
    H51     H    0.42956   0.83952   0.73168   1.000
    H52     H    0.48787   0.93665   0.68015   1.000
    H53     H    0.80085   0.72741   0.63896   1.000
    H54     H    0.73545   0.62588   0.68276   1.000
    H55     H    0.46181   0.72628   0.75677   1.000
    H56     H    0.99907   0.53487   0.19934   1.000
    H57     H    0.06546   0.61966   0.21862   1.000
    H58     H    0.03737   0.69402   0.14009   1.000
    H59     H    0.95190   0.66337   0.06196   1.000
    H60     H    0.86266   0.54848   0.03478   1.000
    H61     H    0.88365   0.49339   0.09243   1.000
    H62     H    0.81406   0.70112   0.24743   1.000
    H63     H    0.95814   0.71589   0.24623   1.000
    H64     H    0.69873   0.65933   0.14130   1.000
    H65     H    0.75787   0.64226   0.06242   1.000
    H66     H    0.80464   0.51517   0.19975   1.000
    H67     H    0.72481   0.58571   0.21982   1.000
    H68     H    0.35878   0.46514   0.87171   1.000
    H69     H    0.41349   0.55239   0.88856   1.000
    H70     H    0.48534   0.43205   0.03041   1.000
    H71     H    0.40117   0.39544   0.95294   1.000
    H72     H    0.52731   0.60200   0.99449   1.000
    H73     H    0.55921   0.55050   0.05406   1.000
    H74     H    0.48005   0.37555   0.84628   1.000
    H75     H    0.62233   0.39788   0.84449   1.000
    H76     H    0.67690   0.46320   0.02842   1.000
    H77     H    0.73519   0.44802   0.94886   1.000
    H78     H    0.69523   0.51689   0.86841   1.000
    H79     H    0.60513   0.58216   0.88666   1.000
    H80     H    0.16794   0.35136   0.84908   1.000
    H81     H    0.76872   0.30992   0.86487   1.000
    H82     H    0.88600   0.39888   0.95223   1.000
    H83     H    0.15128   0.25802   0.74500   1.000
    H84     H    0.03456   0.16769   0.65777   1.000
    H85     H    0.75050   0.21959   0.75673   1.000
    H86     H    0.42856   0.39911   0.15032   1.000
    H87     H    0.48410   0.34693   0.24772   1.000
    H88     H    0.14766   0.46763   0.24607   1.000
    H89     H    0.45144   0.32410   0.36170   1.000
    H90     H    0.18225   0.40484   0.46221   1.000
    H91     H    0.11940   0.44942   0.36064   1.000
    H92     H    0.62460   0.62338   0.33734   1.000
    H93     H    0.48302   0.80236   0.50969   1.000
    H94     H    0.68175   0.79721   0.50630   1.000
    H95     H    0.43377   0.57316   0.29380   1.000
    H96     H    0.23505   0.57801   0.29739   1.000
    H97     H    0.29200   0.75701   0.46075   1.000
    H98     H    0.27525   0.62107   0.84291   1.000
    H99     H    0.92953   0.73248   0.83905   1.000
    C100    C    0.36017   0.33590   0.47837   1.000
    C101    C    0.78408   0.70951   0.41712   1.000
    C102    C    0.66436   0.71058   0.42017   1.000
    C103    C    0.59259   0.66248   0.37438   1.000
    H104    H    0.98794   0.68110   0.93642   1.000
    H105    H    0.30128   0.63915   0.72818   1.000
    H106    H    0.23583   0.68280   0.62600   1.000
    H107    H    0.96182   0.75728   0.72588   1.000
    C108    C    0.49048   0.19448   0.58715   1.000
    C109    C    0.46266   0.11596   0.66168   1.000
    C110    C    0.37332   0.08886   0.54580   1.000
    C111    C    0.38423   0.22111   0.68338   1.000
    C112    C    0.27021   0.11673   0.64085   1.000
    C113    C    0.29441   0.19431   0.56742   1.000
    C114    C    0.93004   0.89490   0.50149   1.000
    C115    C    0.97210   0.97608   0.43181   1.000
    C116    C    0.04581   0.99965   0.55104   1.000
    C117    C    0.05006   0.87050   0.41200   1.000
    C118    C    0.16206   0.97375   0.46250   1.000
    C119    C    0.12361   0.89377   0.53150   1.000
    C120    C    0.60090   0.95697   0.43692   1.000
    C121    C    0.53402   0.90532   0.38049   1.000
    C122    C    0.58098   0.85242   0.34152   1.000
    C123    C    0.51757   0.80228   0.28990   1.000
    C124    C    0.40208   0.80592   0.27863   1.000
    C125    C    0.35602   0.86114   0.31886   1.000
    C126    C    0.42025   0.90957   0.36801   1.000
    C127    C    0.56414   0.74786   0.24889   1.000
    C128    C    0.50039   0.69965   0.19940   1.000
    C129    C    0.38603   0.70247   0.18851   1.000
    C130    C    0.33849   0.75480   0.22795   1.000
    C131    C    0.31870   0.64804   0.13494   1.000
    O132    O    0.05052   0.47177   0.00266   1.000
    O133    O    0.20232   0.44762   0.95018   1.000
    O134    O    0.87115   0.09465   0.60813   1.000
    O135    O    0.71502   0.13341   0.64512   1.000
    O136    O    0.17136   0.50368   0.13907   1.000
    C137    C    0.75490   0.13607   0.47162   1.000
    C138    C    0.78461   0.19306   0.43750   1.000
    C139    C    0.87980   0.19310   0.40200   1.000
    C140    C    0.91044   0.24682   0.37380   1.000
    C141    C    0.84857   0.30381   0.37904   1.000
    C142    C    0.75238   0.30402   0.41430   1.000
    C143    C    0.72166   0.24735   0.44203   1.000
    C144    C    0.87941   0.36075   0.35171   1.000
    C145    C    0.82081   0.41713   0.36108   1.000
    C146    C    0.72681   0.41764   0.39711   1.000
    C147    C    0.69246   0.36195   0.42200   1.000
    C148    C    0.86048   0.47838   0.33583   1.000
    C149    C    0.28397   0.41736   0.70947   1.000
    C150    C    0.16424   0.42042   0.71061   1.000
    C151    C    0.09243   0.37455   0.66263   1.000
    C152    C    0.97841   0.37607   0.66299   1.000
    C153    C    0.93787   0.42497   0.71538   1.000
    C154    C    0.01352   0.47219   0.76318   1.000
    C155    C    0.12398   0.47053   0.76053   1.000
    C156    C    0.90289   0.33038   0.61376   1.000
    C157    C    0.79244   0.33204   0.61633   1.000
    C158    C    0.75209   0.37891   0.66916   1.000
    C159    C    0.82387   0.42439   0.71758   1.000
    C160    C    0.63231   0.38001   0.67179   1.000
    C161    C    0.66639   0.95282   0.61416   1.000
    C162    C    0.63523   0.89522   0.64709   1.000
    C163    C    0.69915   0.84154   0.64445   1.000
    C164    C    0.66636   0.78439   0.67103   1.000
    C165    C    0.56771   0.78389   0.70381   1.000
    C166    C    0.50472   0.84021   0.70704   1.000
    C167    C    0.53684   0.89400   0.67876   1.000
    C168    C    0.72684   0.72674   0.66472   1.000
    C169    C    0.69114   0.67094   0.68917   1.000
    C170    C    0.59501   0.67102   0.72319   1.000
    C171    C    0.53552   0.72698   0.73000   1.000
    C172    C    0.55438   0.61007   0.74861   1.000
    C173    C    0.99088   0.58736   0.19445   1.000
    C174    C    0.96213   0.66217   0.11618   1.000
    C175    C    0.87365   0.54613   0.08870   1.000
    C176    C    0.88387   0.68348   0.22116   1.000
    C177    C    0.76980   0.64105   0.11668   1.000
    C178    C    0.79491   0.56738   0.19402   1.000
    C179    C    0.42979   0.50136   0.89482   1.000
    C180    C    0.47271   0.43147   0.97583   1.000
    C181    C    0.54546   0.55086   0.99973   1.000
    C182    C    0.55051   0.41206   0.87043   1.000
    C183    C    0.66242   0.46248   0.97381   1.000
    C184    C    0.62314   0.53163   0.89400   1.000
    C185    C    0.10089   0.43735   0.95661   1.000
    C186    C    0.03393   0.38082   0.90510   1.000
    C187    C    0.08079   0.34165   0.85235   1.000
    C188    C    0.01736   0.28995   0.80231   1.000
    C189    C    0.90192   0.27873   0.80593   1.000
    C190    C    0.85598   0.31910   0.86107   1.000
    C191    C    0.92023   0.36840   0.90936   1.000
    C192    C    0.06385   0.24883   0.74798   1.000
    C193    C    0.00000   0.19932   0.69980   1.000
    C194    C    0.88577   0.18844   0.70262   1.000
    C195    C    0.83831   0.22796   0.75488   1.000
    C196    C    0.81850   0.13481   0.64819   1.000
    C197    C    0.25579   0.47115   0.13557   1.000
    C198    C    0.28501   0.43721   0.19281   1.000
    C199    C    0.38040   0.40237   0.19340   1.000
    C200    C    0.41080   0.37360   0.24726   1.000
    C201    C    0.34850   0.37888   0.30380   1.000
    C202    C    0.25213   0.41416   0.30350   1.000
    C203    C    0.22161   0.44178   0.24673   1.000
    C204    C    0.37923   0.35165   0.36095   1.000
    C205    C    0.32035   0.36110   0.41703   1.000
    C206    C    0.22614   0.39714   0.41708   1.000
    C207    C    0.19188   0.42202   0.36123   1.000
    C208    C    0.47860   0.66282   0.37594   1.000
    C209    C    0.43804   0.71531   0.42474   1.000
    C210    C    0.51364   0.76322   0.47186   1.000
    C211    C    0.62410   0.76060   0.47017   1.000
    C212    C    0.40309   0.61348   0.33037   1.000
    C213    C    0.29263   0.61603   0.33208   1.000
    C214    C    0.25225   0.66897   0.37883   1.000
    C215    C    0.32403   0.71749   0.42419   1.000
    C216    C    0.13247   0.67162   0.37999   1.000
    C217    C    0.16646   0.61475   0.95304   1.000
    C218    C    0.13537   0.64770   0.89538   1.000
    C219    C    0.19931   0.64485   0.84188   1.000
    C220    C    0.16657   0.67143   0.78466   1.000
    C221    C    0.06784   0.70434   0.78386   1.000
    C222    C    0.00480   0.70776   0.83999   1.000
    C223    C    0.03695   0.67955   0.89300   1.000
    C224    C    0.22718   0.66496   0.72723   1.000
    C225    C    0.19144   0.68933   0.67131   1.000
    C226    C    0.09520   0.72342   0.67107   1.000
    C227    C    0.03562   0.73121   0.72683   1.000
    C228    C    0.05445   0.74876   0.61002   1.000
    N229    N    0.47632   0.12101   0.58938   1.000
    N230    N    0.39544   0.22970   0.61194   1.000
    N231    N    0.36873   0.14933   0.68604   1.000
    N232    N    0.27836   0.12223   0.56946   1.000
    N233    N    0.94741   0.96895   0.50185   1.000
    N234    N    0.02755   0.85983   0.48137   1.000
    N235    N    0.06865   0.94281   0.41202   1.000
    N236    N    0.14295   0.96630   0.53203   1.000
    N237    N    0.97645   0.58981   0.12105   1.000
    N238    N    0.89572   0.61197   0.22958   1.000
    N239    N    0.86808   0.68633   0.14946   1.000
    N240    N    0.77860   0.56960   0.12202   1.000
    N241    N    0.44741   0.50156   0.96880   1.000
    N242    N    0.52737   0.48141   0.85987   1.000
    N243    N    0.56932   0.41187   0.94268   1.000
    N244    N    0.64269   0.53202   0.96648   1.000
    O245    O    0.55064   0.00379   0.47020   1.000
    O246    O    0.70197   0.94992   0.44822   1.000
    O247    O    0.37103   0.60811   0.09450   1.000
    O248    O    0.21522   0.64494   0.13393   1.000
    O249    O    0.67158   0.14079   0.50496   1.000
    O250    O    0.81583   0.08747   0.46648   1.000
    O251    O    0.92643   0.47496   0.29157   1.000
    O252    O    0.82389   0.53565   0.36390   1.000
    O253    O    0.59599   0.99512   0.60972   1.000
    O254    O    0.34518   0.47203   0.73776   1.000
    O255    O    0.31835   0.36083   0.68254   1.000
    O256    O    0.57142   0.35287   0.61657   1.000
    O257    O    0.59723   0.40602   0.72826   1.000
    O258    O    0.75940   0.95531   0.59141   1.000
    O259    O    0.59257   0.55280   0.72240   1.000
    O260    O    0.48627   0.61385   0.79166   1.000
    O261    O    0.31837   0.46668   0.08798   1.000
    O262    O    0.42625   0.29156   0.47505   1.000
    O263    O    0.32359   0.36405   0.53552   1.000
    O264    O    0.09651   0.61131   0.99561   1.000
    O265    O    0.84539   0.73781   0.47100   1.000
    O266    O    0.81837   0.68263   0.36063   1.000
    O267    O    0.07172   0.61639   0.35284   1.000
    O268    O    0.09726   0.72813   0.40602   1.000
    O269    O    0.25891   0.59105   0.95531   1.000
    O270    O    0.09268   0.72241   0.55291   1.000
    O271    O    0.98624   0.79191   0.61366   1.000
loop_
    _geom_bond_atom_site_label_1
    _geom_bond_atom_site_label_2
    _geom_bond_distance
    _geom_bond_site_symmetry_2
    _ccdc_geom_bond_type
    O132   Zn3       2.08499      .   S
    O132   C185      1.27596  1_554   S
    Zn4    O261      2.06546      .   S
    Zn4    O247      2.08245      .   S
    Zn4    O133      2.09282  1_554   S
    Zn4    O269      2.06506  1_554   S
    Zn4    N241      2.11813  1_554   S
    H76    C183      1.09807  1_554   S
    H70    C180      1.09658  1_554   S
    H60    C175      1.09649      .   S
    H73    C181      1.09668  1_554   S
    H59    C174      1.09632      .   S
    H65    C177      1.09800      .   S
    Zn3    N237      2.11711  1_455   S
    Zn3    O248      2.10484      .   S
    Zn3    O136      2.04649      .   S
    Zn3    O264      2.04857  1_554   S
    O261   C197      1.27708      .   S
    C175   H61       1.09819      .   S
    C175   N237      1.49897      .   S
    C175   N240      1.46564      .   S
    O247   C131      1.27620      .   S
    C174   N237      1.50665      .   S
    C174   H58       1.09724  1_655   S
    C174   N239      1.45873      .   S
    C177   N240      1.47953      .   S
    C177   H64       1.09758      .   S
    C177   N239      1.47345      .   S
    N237   C173      1.48851      .   S
    N240   C178      1.46040      .   S
    O248   C131      1.27410      .   S
    C131   C129      1.50237      .   S
    C197   O136      1.27665      .   S
    C197   C198      1.49635      .   S
    N239   C176      1.45732      .   S
    H86    C199      1.08874      .   S
    H36    C128      1.08884      .   S
    C129   C128      1.41998      .   S
    C129   C130      1.38420      .   S
    C198   C199      1.42195      .   S
    C198   C203      1.38645      .   S
    C199   C200      1.37603      .   S
    C178   H66       1.09826      .   S
    C178   H67       1.09855      .   S
    C178   N238      1.50517      .   S
    C173   H56       1.09567      .   S
    C173   H57       1.09626  1_655   S
    C173   N238      1.49064      .   S
    C128   C127      1.37459      .   S
    H37    C130      1.09011      .   S
    C176   N238      1.50472      .   S
    C176   H63       1.09900      .   S
    C176   H62       1.09579      .   S
    C130   C124      1.41670      .   S
    N238   Zn5       2.11396      .   S
    H88    C203      1.08949      .   S
    C203   C202      1.41323      .   S
    C200   H87       1.09142      .   S
    C200   C201      1.42083      .   S
    C127   H35       1.09079      .   S
    C127   C123      1.42076      .   S
    C124   C123      1.43701      .   S
    C124   C125      1.42166      .   S
    C123   C122      1.41542      .   S
    O251   C148      1.25507      .   S
    H95    C212      1.09203      .   S
    H96    C213      1.08690      .   S
    C202   C201      1.43711      .   S
    C202   C207      1.42358      .   S
    C201   C204      1.41590      .   S
    H33    C125      1.09185      .   S
    C125   C126      1.37603      .   S
    H41    C144      1.09116      .   S
    C212   C213      1.37404      .   S
    C212   C208      1.42064      .   S
    C213   C214      1.42044      .   S
    Zn5    O267      1.96362  1_655   S
    Zn5    O266      2.02239      .   S
    Zn5    O252      1.95298      .   S
    C148   C145      1.49574      .   S
    C148   O252      1.30751      .   S
    H92    C103      1.08979      .   S
    C122   H31       1.08957      .   S
    C122   C121      1.38414      .   S
    H39    C140      1.09072      .   S
    C144   C145      1.38552      .   S
    C144   C141      1.41495      .   S
    O267   C216      1.27943      .   S
    O266   C101      1.27683      .   S
    H91    C207      1.09116      .   S
    C204   H89       1.09019      .   S
    C204   C205      1.38527      .   S
    C145   C146      1.42248      .   S
    C207   C206      1.37674      .   S
    C126   C121      1.42053      .   S
    C126   H34       1.08816      .   S
    C140   C141      1.42232      .   S
    C140   C139      1.36850      .   S
    C103   C208      1.41297      .   S
    C103   C102      1.38515      .   S
    H25    C117      1.09855  1_655   S
    C208   C209      1.43836      .   S
    C214   C216      1.48845      .   S
    C214   C215      1.38548      .   S
    C141   C142      1.43710      .   S
    C216   O268      1.27641      .   S
    C121   C120      1.50243      .   S
    H22    C115      1.09785      .   S
    C146   H42       1.08898      .   S
    C146   C147      1.37546      .   S
    H26    C117      1.09598      .   S
    H38    C139      1.08976      .   S
    C139   C138      1.42936      .   S
    O268   Zn6       2.02193      .   S
    C117   N235      1.45727      .   S
    C117   N234      1.50623      .   S
    N235   C115      1.46055  1_455   S
    N235   C118      1.47334      .   S
    C142   C147      1.42191      .   S
    C142   C143      1.41450      .   S
    C205   C206      1.42253      .   S
    C205   C100      1.49578      .   S
    C206   H90       1.08915      .   S
    C101   C102      1.48851      .   S
    C101   O265      1.26732      .   S
    C102   C211      1.42047      .   S
    C147   H43       1.09219      .   S
    C215   C209      1.41318      .   S
    C215   H97       1.08967      .   S
    C209   C210      1.42109      .   S
    C115   H21       1.09595  1_565   S
    C115   N233      1.50493      .   S
    C120   O246      1.27599      .   S
    C120   O245      1.27516  1_565   S
    C138   C143      1.38623      .   S
    C138   C137      1.49694      .   S
    C143   H40       1.08944      .   S
    H28    C118      1.09821      .   S
    O246   Zn0       2.09835  1_565   S
    C118   H27       1.09721  1_565   S
    C118   N236      1.47914      .   S
    H19    C114      1.09608      .   S
    O250   C137      1.27659      .   S
    O250   Zn0       2.06818      .   S
    C211   C210      1.37426      .   S
    C211   H94       1.08630      .   S
    O245   Zn32      2.08284      .   S
    O265   Zn6       1.96160  1_655   S
    C137   O249      1.27695      .   S
    C210   H93       1.09116      .   S
    O262   C100      1.25501      .   S
    C100   O263      1.30736      .   S
    N234   Zn6       2.11261      .   S
    N234   C114      1.48994  1_455   S
    N234   C119      1.50620      .   S
    Zn6    O270      1.95730      .   S
    H12    C110      1.09800      .   S
    C114   N233      1.48927      .   S
    C114   H20       1.09553      .   S
    N233   Zn0       2.11758  1_565   S
    N233   C116      1.50233  1_655   S
    O249   Zn32      2.04352      .   S
    H17    C113      1.09828      .   S
    H29    C119      1.09835      .   S
    Zn0    O258      2.06127  1_545   S
    Zn0    O134      2.07570      .   S
    C119   N236      1.46012      .   S
    C119   H30       1.05874      .   S
    N236   C116      1.46393      .   S
    H7     C108      1.09572      .   S
    O263   Zn1       1.95291      .   S
    C110   H11       1.09704      .   S
    C110   N232      1.46557      .   S
    C110   N229      1.49865      .   S
    H24    C116      1.09660  1_545   S
    C116   H23       1.09785      .   S
    O270   C228      1.30668      .   S
    Zn32   N229      2.11624      .   S
    Zn32   O253      2.05103  1_545   S
    Zn32   O135      2.11445      .   S
    C113   N232      1.46053      .   S
    C113   H18       1.09855      .   S
    C113   N230      1.50511      .   S
    N232   C112      1.47953      .   S
    H47    C156      1.09120      .   S
    H48    C157      1.08712      .   S
    C108   N229      1.48818      .   S
    C108   N230      1.49038      .   S
    C108   H8        1.09594      .   S
    N229   C109      1.50675      .   S
    O258   C161      1.27549      .   S
    Zn1    N230      2.11271      .   S
    Zn1    O256      1.96250      .   S
    Zn1    O255      2.02281      .   S
    O134   C196      1.27700      .   S
    O253   C161      1.27819      .   S
    C228   O271      1.25596  1_455   S
    C228   C226      1.49554      .   S
    N230   C111      1.50471      .   S
    C156   C157      1.37400      .   S
    C156   C152      1.42054      .   S
    C161   C162      1.49610      .   S
    C157   C158      1.42032      .   S
    O256   C160      1.27944      .   S
    H50    C163      1.08959      .   S
    H44    C151      1.08991      .   S
    H106   C225      1.09599      .   S
    H53    C168      1.09099      .   S
    C112   H16       1.09800      .   S
    C112   H15       1.09766      .   S
    C112   N231      1.47333      .   S
    C163   C162      1.38627      .   S
    C163   C164      1.41566      .   S
    O135   C196      1.27342      .   S
    C162   C167      1.42267      .   S
    C196   C194      1.50253      .   S
    H84    C193      1.08852      .   S
    C109   H10       1.09620      .   S
    C109   N231      1.45882      .   S
    C109   H9        1.09690      .   S
    C151   C152      1.41323  1_455   S
    C151   C150      1.38503      .   S
    C152   C153      1.43837      .   S
    C168   C164      1.42196      .   S
    C168   C169      1.37723      .   S
    C158   C160      1.48842      .   S
    C158   C159      1.38554      .   S
    C164   C165      1.43691      .   S
    C226   C225      1.42238      .   S
    C226   C227      1.38536      .   S
    C225   C224      1.37707      .   S
    C160   O257      1.27632      .   S
    C167   H52       1.08856      .   S
    C167   C166      1.37544      .   S
    O255   C149      1.27685      .   S
    H54    C169      1.08914      .   S
    C111   N231      1.45743      .   S
    C111   H13       1.09583      .   S
    C111   H14       1.09894      .   S
    C169   C170      1.42257      .   S
    C193   C194      1.41939  1_455   S
    C193   C192      1.37517      .   S
    C194   C195      1.38425      .   S
    C165   C166      1.42198      .   S
    C165   C171      1.40512      .   S
    C166   H51       1.09146      .   S
    C149   C150      1.48866      .   S
    C149   O254      1.27874      .   S
    C150   C155      1.42053      .   S
    C153   C159      1.41327      .   S
    C153   C154      1.42133  1_655   S
    C159   H49       1.08977      .   S
    O259   C172      1.30673      .   S
    O259   Zn2       1.95750      .   S
    C170   C171      1.38573      .   S
    C170   C172      1.49583      .   S
    H107   C227      1.09043  1_655   S
    C227   C221      1.41406      .   S
    C224   H105      1.09101      .   S
    C224   C220      1.42200      .   S
    O257   Zn2       2.02131      .   S
    C171   H55       1.09914      .   S
    O254   Zn2       1.96194      .   S
    H83    C192      1.09082      .   S
    C192   C188      1.42076      .   S
    C172   O260      1.25589      .   S
    C195   H85       1.09016      .   S
    C195   C189      1.41695      .   S
    Zn2    N242      2.11521      .   S
    C155   C154      1.37434      .   S
    C155   H46       1.08703      .   S
    C154   H45       1.09140  1_455   S
    C221   C220      1.43687      .   S
    C221   C222      1.42198      .   S
    C220   C219      1.41550      .   S
    C188   C189      1.43735  1_455   S
    C188   C187      1.41542      .   S
    C189   C190      1.42178      .   S
    H99    C222      1.09179  1_655   S
    C222   C223      1.35994      .   S
    C219   H98       1.08947      .   S
    C219   C218      1.38606      .   S
    H75    C182      1.09626      .   S
    H74    C182      1.09896      .   S
    H80    C187      1.08956      .   S
    C187   C186      1.38381      .   S
    N242   C182      1.50492      .   S
    N242   C184      1.50623      .   S
    N242   C179      1.48976      .   S
    C190   H81       1.09183      .   S
    C190   C191      1.37620      .   S
    H78    C184      1.09835      .   S
    C182   N243      1.45749      .   S
    H68    C179      1.09613      .   S
    H79    C184      1.09795      .   S
    H69    C179      1.09544      .   S
    C223   C218      1.42364      .   S
    C223   H104      1.10374  1_455   S
    C184   N244      1.46013      .   S
    C179   N241      1.48927      .   S
    C218   C217      1.49591      .   S
    C186   C191      1.42090  1_455   S
    C186   C185      1.50285      .   S
    C191   H82       1.08808      .   S
    N243   C183      1.47372      .   S
    N243   C180      1.46022      .   S
    H77    C183      1.09824      .   S
    O133   C185      1.27651      .   S
    H71    C180      1.09792      .   S
    C217   O269      1.27556      .   S
    C217   O264      1.27824      .   S
    N244   C183      1.47840      .   S
    N244   C181      1.46430      .   S
    N241   C180      1.50501      .   S
    N241   C181      1.50215      .   S
    H72    C181      1.09775      .   S
    Zn32   Zn0       2.75704      .   S
    Zn3    Zn4       2.76422      .   S
