# CIF file generated by openbabel 2.4.90, see http://openbabel.sf.net
data_I
_chemical_name_common ''
_cell_length_a 12.365
_cell_length_b 20.163
_cell_length_c 20.18
_cell_angle_alpha 102.302
_cell_angle_beta 94.912
_cell_angle_gamma 94.696
_space_group_name_H-M_alt 'P 1'
_space_group_name_Hall 'P 1'
loop_
    _symmetry_equiv_pos_as_xyz
    x,y,z
loop_
    _atom_site_label
    _atom_site_type_symbol
    _atom_site_fract_x
    _atom_site_fract_y
    _atom_site_fract_z
    _atom_site_occupancy
    Zr0     Zr   0.61578   0.07295   0.55951   1.000
    Zr1     Zr   0.80517   0.01648   0.52665   1.000
    Zr2     Zr   0.41201   0.33328   0.60583   1.000
    Zr3     Zr   0.50489   0.48363   0.75530   1.000
    Zr4     Zr   0.11599   0.56046   0.07286   1.000
    Zr5     Zr   0.30521   0.52594   0.01643   1.000
    Zr6     Zr   0.91217   0.60581   0.33317   1.000
    Zr7     Zr   0.00503   0.75533   0.48350   1.000
    O8      O    0.71048   0.04472   0.54308   1.000
    O9      O    0.21060   0.54320   0.04464   1.000
    N10     N    0.95815   0.40000   0.68956   1.000
    O11     O    0.19159   0.43891   0.71805   1.000
    O12     O    0.75461   0.42241   0.71567   1.000
    O13     O    0.16167   0.37353   0.66687   1.000
    O14     O    0.72493   0.37154   0.65038   1.000
    N15     N    0.04680   0.93463   0.48173   1.000
    O16     O    0.96155   0.96367   0.49799   1.000
    O17     O    0.03155   0.87110   0.48208   1.000
    N18     N    0.95980   0.28492   0.80354   1.000
    O19     O    0.10678   0.38585   0.89342   1.000
    O20     O    0.81260   0.19405   0.70293   1.000
    O21     O    0.89898   0.17024   0.68547   1.000
    O22     O    0.02152   0.40052   0.92065   1.000
    N23     N    0.61383   0.78241   0.68402   1.000
    O24     O    0.69806   0.88415   0.62152   1.000
    O25     O    0.60986   0.90822   0.63432   1.000
    O26     O    0.58128   0.65031   0.71143   1.000
    N27     N    0.45993   0.80358   0.28480   1.000
    O28     O    0.52157   0.92098   0.39983   1.000
    O29     O    0.60675   0.89339   0.38612   1.000
    O30     O    0.31277   0.70314   0.19410   1.000
    O31     O    0.39902   0.68530   0.17013   1.000
    N32     N    0.37966   0.15538   0.61426   1.000
    O33     O    0.39169   0.21843   0.61157   1.000
    O34     O    0.46286   0.12618   0.59435   1.000
    N35     N    0.11396   0.68448   0.78246   1.000
    O36     O    0.11010   0.63518   0.90835   1.000
    O37     O    0.08141   0.71168   0.65033   1.000
    O38     O    0.19801   0.62149   0.88417   1.000
    N39     N    0.30386   0.40022   0.30564   1.000
    O40     O    0.33583   0.37445   0.43816   1.000
    O41     O    0.22377   0.46615   0.20580   1.000
    O42     O    0.30783   0.44827   0.17892   1.000
    N43     N    0.45831   0.68946   0.39980   1.000
    O44     O    0.69176   0.71802   0.43853   1.000
    O45     O    0.22513   0.65028   0.37140   1.000
    O46     O    0.25473   0.71560   0.42228   1.000
    O47     O    0.66179   0.66684   0.37335   1.000
    N48     N    0.87966   0.61448   0.15534   1.000
    O49     O    0.96294   0.59481   0.12615   1.000
    O50     O    0.89180   0.61168   0.21836   1.000
    N51     N    0.54686   0.48173   0.93462   1.000
    O52     O    0.53150   0.48212   0.87110   1.000
    O53     O    0.46158   0.49774   0.96362   1.000
    N54     N    0.80382   0.30585   0.40036   1.000
    O55     O    0.80716   0.17891   0.44846   1.000
    O56     O    0.72375   0.20636   0.46630   1.000
    O57     O    0.83592   0.43829   0.37445   1.000
loop_
    _geom_bond_atom_site_label_1
    _geom_bond_atom_site_label_2
    _geom_bond_distance
    _geom_bond_site_symmetry_2
    _ccdc_geom_bond_type
    Zr0    O8        1.37852      .   S
    Zr1    O8        1.37852      .   S
    Zr4    O9        1.38211      .   S
    Zr5    O9        1.38211      .   S
    N10    O11       2.90359  1_655   S
    Zr3    O11       3.87631      .   S
    N10    O12       2.66986      .   S
    Zr3    O12       3.51050      .   S
    N10    O13       2.67210  1_655   S
    Zr2    O13       3.52081      .   S
    N10    O14       2.90099      .   S
    Zr2    O14       3.87236      .   S
    N15    O16       1.28078  1_455   S
    Zr1    O16       2.33946  1_545   S
    N15    O17       1.28092      .   S
    Zr7    O17       2.33711      .   S
    N18    O19       2.82691  1_655   S
    Zr5    O19       3.87230  1_554   S
    N18    O20       2.83340      .   S
    Zr0    O20       3.88207      .   S
    N18    O21       2.94116      .   S
    Zr1    O21       3.97105      .   S
    N18    O22       2.94151  1_655   S
    Zr4    O22       3.96819  1_554   S
    N23    O24       2.80376      .   S
    Zr1    O24       3.81723  1_545   S
    N23    O25       2.92227      .   S
    Zr0    O25       3.92836  1_545   S
    N23    O26       2.83771      .   S
    Zr3    O26       3.72319      .   S
    N27    O28       2.93805      .   S
    Zr0    O28       3.96177  1_545   S
    N27    O29       2.82907      .   S
    Zr1    O29       3.87736  1_545   S
    N27    O30       2.83011      .   S
    Zr4    O30       3.87529      .   S
    N27    O31       2.94365      .   S
    Zr5    O31       3.97713      .   S
    N32    O33       1.28110      .   S
    Zr2    O33       2.33729      .   S
    N32    O34       1.27884      .   S
    Zr0    O34       2.33670      .   S
    N35    O36       2.92113      .   S
    Zr4    O36       3.92489  1_554   S
    N35    O37       2.83682      .   S
    Zr7    O37       3.72234      .   S
    N35    O38       2.80487      .   S
    Zr5    O38       3.82046  1_554   S
    N39    O40       2.83247      .   S
    Zr2    O40       3.71540      .   S
    N39    O41       2.79669      .   S
    Zr4    O41       3.81653      .   S
    N39    O42       2.92384      .   S
    Zr5    O42       3.92234      .   S
    N43    O44       2.90251      .   S
    Zr7    O44       3.87616  1_455   S
    N43    O45       2.90121      .   S
    Zr6    O45       3.87292  1_655   S
    N43    O46       2.67041      .   S
    Zr7    O46       3.51241      .   S
    N43    O47       2.67163      .   S
    Zr6    O47       3.51931      .   S
    N48    O49       1.27905      .   S
    Zr4    O49       2.33732  1_455   S
    N48    O50       1.28147      .   S
    Zr6    O50       2.33828      .   S
    N51    O52       1.28147      .   S
    Zr3    O52       2.33895      .   S
    N51    O53       1.28037      .   S
    Zr5    O53       2.33932  1_554   S
    N54    O55       2.92641      .   S
    Zr1    O55       3.92578      .   S
    N54    O56       2.79510      .   S
    Zr0    O56       3.81501      .   S
    N54    O57       2.83182      .   S
    Zr6    O57       3.71532      .   S
