# CIF file generated by openbabel 2.4.90, see http://openbabel.sf.net
data_I
_chemical_name_common ''
_cell_length_a 11.6274
_cell_length_b 11.638
_cell_length_c 11.6507
_cell_angle_alpha 95.2968
_cell_angle_beta 116.299
_cell_angle_gamma 95.1862
_space_group_name_H-M_alt 'P 1'
_space_group_name_Hall 'P 1'
loop_
    _symmetry_equiv_pos_as_xyz
    x,y,z
loop_
    _atom_site_label
    _atom_site_type_symbol
    _atom_site_fract_x
    _atom_site_fract_y
    _atom_site_fract_z
    _atom_site_occupancy
    N0      N    0.65918   0.29125   0.38930   1.000
    N1      N    0.11053   0.20567   0.84118   1.000
    N2      N    0.83557   0.57834   0.63755   1.000
    N3      N    0.16611   0.42398   0.36309   1.000
    N4      N    0.86293   0.92201   0.66468   1.000
    N5      N    0.13639   0.07568   0.33361   1.000
    N6      N    0.34085   0.70875   0.61073   1.000
    N7      N    0.88950   0.79433   0.15885   1.000
    Zr8     Zr   0.00017   0.12500   0.49982   1.000
    O9      O    0.03206   0.17311   0.62253   1.000
    O10     O    0.87764   0.20014   0.46795   1.000
    O11     O    0.95004   0.33843   0.55079   1.000
    O12     O    0.05111   0.28802   0.44941   1.000
    O13     O    0.05041   0.08688   0.44877   1.000
    O14     O    0.94935   0.03668   0.55005   1.000
    O15     O    0.12254   0.92486   0.53189   1.000
    O16     O    0.96813   0.95189   0.37730   1.000
    Zr17    Zr   0.29381   0.24949   0.20615   1.000
    O18     O    0.22372   0.21693   0.07076   1.000
    O19     O    0.23242   0.17280   0.23702   1.000
    O20     O    0.26291   0.32644   0.26729   1.000
    O21     O    0.42941   0.28130   0.27611   1.000
    Zr22    Zr   0.70622   0.75051   0.79388   1.000
    O23     O    0.57062   0.71870   0.72392   1.000
    O24     O    0.73768   0.67431   0.73294   1.000
    O25     O    0.77631   0.78307   0.92927   1.000
    O26     O    0.76738   0.82646   0.76241   1.000
loop_
    _geom_bond_atom_site_label_1
    _geom_bond_atom_site_label_2
    _geom_bond_distance
    _geom_bond_site_symmetry_2
    _ccdc_geom_bond_type
    Zr8    O9        1.35644      .   S
    N1     O9        2.27262      .   S
    Zr8    O10       1.65793  1_455   S
    N0     O10       2.64958      .   S
    Zr8    O11       2.67549  1_455   S
    N2     O11       3.45428      .   S
    Zr8    O12       2.14611      .   S
    N3     O12       2.53106      .   S
    Zr8    O13       1.09443      .   S
    N5     O13       1.99905      .   S
    Zr8    O14       1.43382  1_455   S
    N4     O14       2.41867  1_565   S
    Zr8    O15       2.80681  1_545   S
    N6     O15       3.62316      .   S
    Zr8    O16       2.25771  1_445   S
    N7     O16       2.72930      .   S
    Zr17   O18       1.41083      .   S
    N1     O18       2.38512  1_556   S
    Zr17   O19       1.26773      .   S
    N5     O19       2.21608      .   S
    Zr17   O20       1.26711      .   S
    N3     O20       2.21619      .   S
    Zr17   O21       1.40973      .   S
    N0     O21       2.38404      .   S
    Zr22   O23       1.40973      .   S
    N6     O23       2.38405      .   S
    Zr22   O24       1.26372      .   S
    N2     O24       2.21346      .   S
    Zr22   O25       1.41083      .   S
    N7     O25       2.38511  1_554   S
    Zr22   O26       1.26434      .   S
    N4     O26       2.21344      .   S
