# CIF file generated by openbabel 2.4.90, see http://openbabel.sf.net
data_I
_chemical_name_common ''
_cell_length_a 11.6274
_cell_length_b 11.638
_cell_length_c 11.6507
_cell_angle_alpha 95.2968
_cell_angle_beta 116.299
_cell_angle_gamma 95.1862
_space_group_name_H-M_alt 'P 1'
_space_group_name_Hall 'P 1'
loop_
    _symmetry_equiv_pos_as_xyz
    x,y,z
loop_
    _atom_site_label
    _atom_site_type_symbol
    _atom_site_fract_x
    _atom_site_fract_y
    _atom_site_fract_z
    _atom_site_occupancy
    Zr0     Zr   0.38156   0.35591   0.29337   1.000
    Zr1     Zr   0.93995   0.24799   0.56036   1.000
    Zr2     Zr   0.20607   0.14307   0.11892   1.000
    Zr3     Zr   0.00118   0.50186   0.50047   1.000
    Zr4     Zr   0.99948   0.99815   0.49879   1.000
    Zr5     Zr   0.61847   0.64409   0.70665   1.000
    Zr6     Zr   0.06008   0.75201   0.43966   1.000
    Zr7     Zr   0.79396   0.85693   0.88111   1.000
    O8      O    0.29381   0.24949   0.20615   1.000
    O9      O    0.02978   0.87508   0.46923   1.000
    O10     O    0.03063   0.62694   0.47007   1.000
    O11     O    0.96972   0.12307   0.52958   1.000
    O12     O    0.97056   0.37492   0.53042   1.000
    O13     O    0.70622   0.75051   0.79388   1.000
    N14     N    0.65918   0.29125   0.38930   1.000
    O15     O    0.56501   0.31311   0.34606   1.000
    O16     O    0.75511   0.27528   0.43608   1.000
    N17     N    0.11053   0.20567   0.84118   1.000
    O18     O    0.06394   0.22122   0.74525   1.000
    O19     O    0.15363   0.18437   0.93538   1.000
    N20     N    0.83557   0.57834   0.63755   1.000
    O21     O    0.76914   0.59812   0.67199   1.000
    O22     O    0.89991   0.55186   0.60176   1.000
    N23     N    0.16611   0.42398   0.36309   1.000
    O24     O    0.10205   0.45104   0.39901   1.000
    O25     O    0.23201   0.40338   0.32843   1.000
    N26     N    0.86293   0.92201   0.66468   1.000
    O27     O    0.82854   0.90240   0.73095   1.000
    O28     O    0.89852   0.94836   0.60027   1.000
    N29     N    0.13639   0.07568   0.33361   1.000
    O30     O    0.10065   0.04875   0.39773   1.000
    O31     O    0.17103   0.09611   0.26789   1.000
    N32     N    0.34085   0.70875   0.61073   1.000
    O33     O    0.43502   0.68689   0.65397   1.000
    O34     O    0.24492   0.72472   0.56395   1.000
    N35     N    0.88950   0.79433   0.15885   1.000
    O36     O    0.93609   0.77878   0.25478   1.000
    O37     O    0.84640   0.81563   0.06465   1.000
loop_
    _geom_bond_atom_site_label_1
    _geom_bond_atom_site_label_2
    _geom_bond_distance
    _geom_bond_site_symmetry_2
    _ccdc_geom_bond_type
    Zr2    O8        1.49264      .   S
    Zr0    O8        1.49264      .   S
    Zr6    O9        1.54979      .   S
    Zr4    O9        1.54979  1_655   S
    Zr6    O10       1.57296      .   S
    Zr3    O10       1.57296      .   S
    Zr4    O11       1.57056  1_565   S
    Zr1    O11       1.57056      .   S
    Zr3    O12       1.59405  1_455   S
    Zr1    O12       1.59405      .   S
    Zr5    O13       1.49265      .   S
    Zr7    O13       1.49265      .   S
    N14    O15       1.05002      .   S
    Zr0    O15       2.06475      .   S
    N14    O16       1.04565      .   S
    Zr1    O16       2.06572      .   S
    N17    O18       1.04592      .   S
    Zr1    O18       2.06606  1_655   S
    N17    O19       1.04998      .   S
    Zr2    O19       2.06466  1_554   S
    N20    O21       1.04887      .   S
    Zr5    O21       2.06765      .   S
    N20    O22       1.05971      .   S
    Zr3    O22       2.08476  1_455   S
    N23    O24       1.05993      .   S
    Zr3    O24       2.08507      .   S
    N23    O25       1.04745      .   S
    Zr0    O25       2.06321      .   S
    N26    O27       1.04775      .   S
    Zr7    O27       2.06356      .   S
    N26    O28       1.05972      .   S
    Zr4    O28       2.08456      .   S
    N29    O30       1.05995      .   S
    Zr4    O30       2.08491  1_665   S
    N29    O31       1.04624      .   S
    Zr2    O31       2.05880      .   S
    N32    O33       1.05003      .   S
    Zr5    O33       2.06476      .   S
    N32    O34       1.04565      .   S
    Zr6    O34       2.06572      .   S
    N35    O36       1.04592      .   S
    Zr6    O36       2.06606  1_455   S
    N35    O37       1.04998      .   S
    Zr7    O37       2.06465  1_556   S
