# CIF file generated by openbabel 2.4.90, see http://openbabel.sf.net
data_I
_chemical_name_common ''
_cell_length_a 10.1355
_cell_length_b 11.566
_cell_length_c 14.801
_cell_angle_alpha 91.189
_cell_angle_beta 90.015
_cell_angle_gamma 90.008
_space_group_name_H-M_alt 'P 1'
_space_group_name_Hall 'P 1'
loop_
    _symmetry_equiv_pos_as_xyz
    x,y,z
loop_
    _atom_site_label
    _atom_site_type_symbol
    _atom_site_fract_x
    _atom_site_fract_y
    _atom_site_fract_z
    _atom_site_occupancy
    Zr0     Zr   0.07203   0.75484   0.13178   1.000
    Zr1     Zr   0.88247   0.74107   0.30929   1.000
    Zr2     Zr   0.57203   0.74515   0.36839   1.000
    Zr3     Zr   0.38250   0.75888   0.19079   1.000
    Zr4     Zr   0.92810   0.24510   0.86843   1.000
    Zr5     Zr   0.11747   0.25880   0.69087   1.000
    Zr6     Zr   0.42809   0.25501   0.63241   1.000
    Zr7     Zr   0.61716   0.24109   0.81131   1.000
    Zr8     Zr   0.00007   0.50002   0.00005   1.000
    Zr9     Zr   0.49993   0.00002   0.50060   1.000
    Zr10    Zr   0.00000   0.99986   0.00015   1.000
    Zr11    Zr   0.50002   0.49990   0.50011   1.000
    N12     N    0.47598   0.97907   0.29205   1.000
    O13     O    0.48805   0.99964   0.36165   1.000
    O14     O    0.45321   0.89666   0.26503   1.000
    O15     O    0.50059   0.89322   0.30943   1.000
    N16     N    0.16042   0.82424   0.32913   1.000
    O17     O    0.14557   0.80102   0.25928   1.000
    O18     O    0.22319   0.80203   0.27403   1.000
    O19     O    0.06315   0.80113   0.33351   1.000
    N20     N    0.36697   0.54834   0.31778   1.000
    O21     O    0.42953   0.62294   0.32801   1.000
    O22     O    0.38214   0.62637   0.28361   1.000
    O23     O    0.40696   0.51881   0.37878   1.000
    N24     N    0.89924   0.74259   0.96860   1.000
    O25     O    0.96084   0.73143   0.02259   1.000
    O26     O    0.94285   0.66772   0.98966   1.000
    O27     O    0.92170   0.83398   0.97544   1.000
    N28     N    0.86699   0.95139   0.18236   1.000
    O29     O    0.92953   0.87692   0.17211   1.000
    O30     O    0.88214   0.87347   0.21649   1.000
    O31     O    0.90699   0.98077   0.12146   1.000
    N32     N    0.39919   0.75729   0.53151   1.000
    O33     O    0.46081   0.76849   0.47756   1.000
    O34     O    0.44279   0.83221   0.51061   1.000
    O35     O    0.42169   0.66586   0.52471   1.000
    N36     N    0.27158   0.92714   0.05586   1.000
    O37     O    0.19169   0.87619   0.07659   1.000
    O38     O    0.17369   0.93744   0.04369   1.000
    O39     O    0.32413   0.87473   0.09945   1.000
    N40     N    0.78136   0.92271   0.44827   1.000
    O41     O    0.79835   0.85894   0.39825   1.000
    O42     O    0.72074   0.85996   0.41303   1.000
    O43     O    0.69217   0.95644   0.47428   1.000
    N44     N    0.83931   0.17588   0.67151   1.000
    O45     O    0.85429   0.19906   0.74126   1.000
    O46     O    0.77656   0.19805   0.72698   1.000
    O47     O    0.93663   0.19890   0.66699   1.000
    N48     N    0.02438   0.47904   0.79134   1.000
    O49     O    0.04693   0.39660   0.76469   1.000
    O50     O    0.99959   0.39317   0.80908   1.000
    O51     O    0.01218   0.49965   0.86080   1.000
    N52     N    0.66036   0.67575   0.17097   1.000
    O53     O    0.56311   0.69884   0.16658   1.000
    O54     O    0.64553   0.69896   0.24084   1.000
    O55     O    0.72314   0.69794   0.22606   1.000
    N56     N    0.13310   0.04834   0.81788   1.000
    O57     O    0.07052   0.12291   0.82809   1.000
    O58     O    0.11786   0.12633   0.78370   1.000
    O59     O    0.09308   0.01878   0.87885   1.000
    N60     N    0.21859   0.07737   0.55190   1.000
    O61     O    0.30775   0.04359   0.52617   1.000
    O62     O    0.20161   0.14106   0.60193   1.000
    O63     O    0.27926   0.14011   0.58731   1.000
    N64     N    0.63265   0.45178   0.68322   1.000
    O65     O    0.57001   0.37732   0.67323   1.000
    O66     O    0.61728   0.37384   0.71795   1.000
    O67     O    0.59286   0.48103   0.62186   1.000
    N68     N    0.60107   0.24249   0.46941   1.000
    O69     O    0.53951   0.23145   0.52345   1.000
    O70     O    0.55747   0.16771   0.49049   1.000
    O71     O    0.57843   0.33392   0.47587   1.000
    N72     N    0.10070   0.25744   0.03156   1.000
    O73     O    0.03915   0.26858   0.97759   1.000
    O74     O    0.05714   0.33231   0.01050   1.000
    O75     O    0.07826   0.16597   0.02474   1.000
    N76     N    0.22852   0.42715   0.55611   1.000
    O77     O    0.30840   0.37621   0.57690   1.000
    O78     O    0.32639   0.43743   0.54383   1.000
    O79     O    0.17596   0.37477   0.59971   1.000
    N80     N    0.71864   0.42279   0.94878   1.000
    O81     O    0.70156   0.35896   0.89918   1.000
    O82     O    0.77929   0.35996   0.91346   1.000
    O83     O    0.80785   0.45659   0.97445   1.000
    N84     N    0.72850   0.07257   0.94491   1.000
    O85     O    0.80838   0.12359   0.92391   1.000
    O86     O    0.82635   0.06228   0.95684   1.000
    O87     O    0.67575   0.12506   0.90179   1.000
    N88     N    0.33908   0.32435   0.82958   1.000
    O89     O    0.35413   0.30109   0.75978   1.000
    O90     O    0.27648   0.30204   0.77439   1.000
    O91     O    0.43634   0.30118   0.83442   1.000
    N92     N    0.52458   0.02104   0.70915   1.000
    O93     O    0.54703   0.10346   0.73628   1.000
    O94     O    0.49977   0.10694   0.69156   1.000
    O95     O    0.51227   0.00041   0.63969   1.000
    N96     N    0.97551   0.52092   0.20878   1.000
    O97     O    0.95295   0.60334   0.23544   1.000
    O98     O    0.00034   0.60678   0.19106   1.000
    O99     O    0.98778   0.50033   0.13932   1.000
    N100    N    0.28132   0.57733   0.05173   1.000
    O101    O    0.19217   0.54357   0.02588   1.000
    O102    O    0.29832   0.64106   0.10178   1.000
    O103    O    0.22070   0.64005   0.08703   1.000
    N104    N    0.77152   0.57285   0.44432   1.000
    O105    O    0.69165   0.62378   0.42357   1.000
    O106    O    0.67365   0.56247   0.45650   1.000
    O107    O    0.82408   0.62526   0.40072   1.000
loop_
    _geom_bond_atom_site_label_1
    _geom_bond_atom_site_label_2
    _geom_bond_distance
    _geom_bond_site_symmetry_2
    _ccdc_geom_bond_type
    N12    O13       1.05954      .   S
    Zr9    O13       2.05991  1_545   S
    N12    O14       1.05162      .   S
    Zr3    O14       2.04611      .   S
    N12    O15       1.06065      .   S
    Zr2    O15       2.06907      .   S
    N16    O17       1.07328      .   S
    Zr0    O17       2.08789      .   S
    N16    O18       1.06176      .   S
    Zr3    O18       2.08566      .   S
    N16    O19       1.02386      .   S
    Zr1    O19       1.98834  1_655   S
    N20    O21       1.07872      .   S
    Zr2    O21       2.09883      .   S
    N20    O22       1.05484      .   S
    Zr3    O22       2.07935      .   S
    N20    O23       1.05303      .   S
    Zr11   O23       2.04398      .   S
    N24    O25       1.02424  1_556   S
    Zr0    O25       1.98395  1_455   S
    N24    O26       1.02637      .   S
    Zr8    O26       2.03348  1_454   S
    N24    O27       1.08399      .   S
    Zr10   O27       2.10116  1_454   S
    N28    O29       1.07772      .   S
    Zr0    O29       2.09804  1_455   S
    N28    O30       1.05345      .   S
    Zr1    O30       2.07827      .   S
    N28    O31       1.05122      .   S
    Zr10   O31       2.04422  1_455   S
    N32    O33       1.02424      .   S
    Zr2    O33       1.98417      .   S
    N32    O34       1.02614      .   S
    Zr9    O34       2.03369  1_545   S
    N32    O35       1.08445      .   S
    Zr11   O35       2.10206      .   S
    N36    O37       1.05095      .   S
    Zr0    O37       2.03854      .   S
    N36    O38       1.01586      .   S
    Zr10   O38       2.01357      .   S
    N36    O39       1.04084      .   S
    Zr3    O39       2.01206      .   S
    N40    O41       1.04834      .   S
    Zr1    O41       2.06051      .   S
    N40    O42       1.07717      .   S
    Zr2    O42       2.10573      .   S
    N40    O43       1.05438      .   S
    Zr9    O43       2.04814  1_545   S
    N44    O45       1.07190      .   S
    Zr4    O45       2.08412      .   S
    N44    O46       1.06574      .   S
    Zr7    O46       2.09554      .   S
    N44    O47       1.02416      .   S
    Zr5    O47       1.98836  1_455   S
    N48    O49       1.04952      .   S
    Zr5    O49       2.04295      .   S
    N48    O50       1.06258  1_455   S
    Zr4    O50       2.07173      .   S
    N48    O51       1.05778      .   S
    Zr8    O51       2.06466  1_554   S
    N52    O53       1.02365      .   S
    Zr3    O53       1.98794      .   S
    N52    O54       1.07366      .   S
    Zr2    O54       2.08893      .   S
    N52    O55       1.06150      .   S
    Zr1    O55       2.08506      .   S
    N56    O57       1.07872      .   S
    Zr4    O57       2.09849  1_655   S
    N56    O58       1.05469      .   S
    Zr5    O58       2.07905      .   S
    N56    O59       1.05294      .   S
    Zr10   O59       2.04413  1_564   S
    N60    O61       1.05288      .   S
    Zr9    O61       2.04544      .   S
    N60    O62       1.04786      .   S
    Zr5    O62       2.05937      .   S
    N60    O63       1.07866      .   S
    Zr6    O63       2.10927      .   S
    N64    O65       1.07755      .   S
    Zr6    O65       2.09739      .   S
    N64    O66       1.05845      .   S
    Zr7    O66       2.08682      .   S
    N64    O67       1.05581      .   S
    Zr11   O67       2.04832      .   S
    N68    O69       1.02466      .   S
    Zr6    O69       1.98333      .   S
    N68    O70       1.02571      .   S
    Zr9    O70       2.03368      .   S
    N68    O71       1.08439      .   S
    Zr11   O71       2.10186      .   S
    N72    O73       1.02371  1_554   S
    Zr4    O73       1.98293  1_655   S
    N72    O74       1.02629      .   S
    Zr8    O74       2.03313      .   S
    N72    O75       1.08478      .   S
    Zr10   O75       2.10306  1_565   S
    N76    O77       1.05114      .   S
    Zr6    O77       2.03943      .   S
    N76    O78       1.01590      .   S
    Zr11   O78       2.01435      .   S
    N76    O79       1.04089      .   S
    Zr5    O79       2.01164      .   S
    N80    O81       1.04463      .   S
    Zr7    O81       2.05122      .   S
    N80    O82       1.07872      .   S
    Zr4    O82       2.10909      .   S
    N80    O83       1.05272      .   S
    Zr8    O83       2.04521  1_454   S
    N84    O85       1.05254      .   S
    Zr4    O85       2.04203      .   S
    N84    O86       1.01477      .   S
    Zr10   O86       2.01216  1_464   S
    N84    O87       1.03819      .   S
    Zr7    O87       2.00532      .   S
    N88    O89       1.07317      .   S
    Zr6    O89       2.08773      .   S
    N88    O90       1.06177      .   S
    Zr5    O90       2.08542      .   S
    N88    O91       1.02443      .   S
    Zr7    O91       1.98742      .   S
    N92    O93       1.05162      .   S
    Zr7    O93       2.04890      .   S
    N92    O94       1.06259      .   S
    Zr6    O94       2.07103      .   S
    N92    O95       1.05794      .   S
    Zr9    O95       2.06241      .   S
    N96    O97       1.04931      .   S
    Zr1    O97       2.04239      .   S
    N96    O98       1.06258  1_655   S
    Zr0    O98       2.07187      .   S
    N96    O99       1.05779      .   S
    Zr8    O99       2.06514  1_455   S
    N100   O101      1.05300      .   S
    Zr8    O101      2.04509      .   S
    N100   O102      1.04830      .   S
    Zr3    O102      2.06047      .   S
    N100   O103      1.07753      .   S
    Zr0    O103      2.10641      .   S
    N104   O105      1.05086      .   S
    Zr2    O105      2.03840      .   S
    N104   O106      1.01587      .   S
    Zr11   O106      2.01412      .   S
    N104   O107      1.04111      .   S
    Zr1    O107      2.01275      .   S
