# CIF file generated by openbabel 2.4.90, see http://openbabel.sf.net
data_I
_chemical_name_common ''
_cell_length_a 23.716
_cell_length_b 14.398
_cell_length_c 17.462
_cell_angle_alpha 89.922
_cell_angle_beta 93.421
_cell_angle_gamma 87.6
_space_group_name_H-M_alt 'P 1'
_space_group_name_Hall 'P 1'
loop_
    _symmetry_equiv_pos_as_xyz
    x,y,z
loop_
    _atom_site_label
    _atom_site_type_symbol
    _atom_site_fract_x
    _atom_site_fract_y
    _atom_site_fract_z
    _atom_site_occupancy
    H0      H    0.39605   0.54119   0.88920   1.000
    H1      H    0.89608   0.55260   0.88702   1.000
    H2      H    0.29233   0.73492   0.06934   1.000
    H3      H    0.79347   0.72489   0.08159   1.000
    H4      H    0.39716   0.73200   0.06630   1.000
    H5      H    0.89853   0.72271   0.07803   1.000
    H6      H    0.29095   0.53376   0.88535   1.000
    H7      H    0.79071   0.54619   0.88256   1.000
    H8      H    0.40235   0.46114   0.10630   1.000
    H9      H    0.90393   0.45500   0.11500   1.000
    H10     H    0.29468   0.26058   0.92946   1.000
    H11     H    0.79281   0.28216   0.92100   1.000
    H12     H    0.39914   0.26883   0.93020   1.000
    H13     H    0.89798   0.28901   0.92199   1.000
    H14     H    0.29740   0.46396   0.11184   1.000
    H15     H    0.79877   0.45776   0.12189   1.000
    H16     H    0.10072   0.91505   0.37354   1.000
    H17     H    0.60042   0.91515   0.37156   1.000
    H18     H    0.21872   0.81092   0.60074   1.000
    H19     H    0.71856   0.80824   0.59779   1.000
    H20     H    0.11322   0.81679   0.59677   1.000
    H21     H    0.61295   0.81590   0.59439   1.000
    H22     H    0.20541   0.91110   0.36627   1.000
    H23     H    0.70508   0.90952   0.36364   1.000
    H24     H    0.10889   0.03578   0.60169   1.000
    H25     H    0.60867   0.03288   0.60020   1.000
    H26     H    0.19994   0.24868   0.43249   1.000
    H27     H    0.70043   0.24562   0.43173   1.000
    H28     H    0.09579   0.23940   0.43292   1.000
    H29     H    0.59619   0.23749   0.43220   1.000
    H30     H    0.21418   0.03218   0.60570   1.000
    H31     H    0.71392   0.02821   0.60411   1.000
    H32     H    0.11228   0.39887   0.13307   1.000
    H33     H    0.61326   0.37012   0.13763   1.000
    H34     H    0.21055   0.32748   0.89922   1.000
    H35     H    0.71044   0.36938   0.89699   1.000
    H36     H    0.10563   0.32764   0.90341   1.000
    H37     H    0.60553   0.36556   0.90050   1.000
    H38     H    0.21763   0.39756   0.14044   1.000
    H39     H    0.71890   0.37130   0.14509   1.000
    H40     H    0.09941   0.59346   0.86900   1.000
    H41     H    0.59954   0.62647   0.86738   1.000
    H42     H    0.21726   0.65668   0.10244   1.000
    H43     H    0.71807   0.63143   0.10772   1.000
    H44     H    0.11220   0.64984   0.10135   1.000
    H45     H    0.61276   0.62728   0.10450   1.000
    H46     H    0.20369   0.60035   0.85885   1.000
    H47     H    0.70438   0.63137   0.85965   1.000
    H48     H    0.40049   0.08375   0.62746   1.000
    H49     H    0.90068   0.08151   0.62702   1.000
    H50     H    0.28227   0.19131   0.40156   1.000
    H51     H    0.78256   0.18663   0.40020   1.000
    H52     H    0.38771   0.18589   0.40534   1.000
    H53     H    0.88800   0.18113   0.40420   1.000
    H54     H    0.29601   0.08859   0.63534   1.000
    H55     H    0.79601   0.08530   0.63440   1.000
    H56     H    0.39272   0.96514   0.40184   1.000
    H57     H    0.89265   0.96190   0.39864   1.000
    H58     H    0.30073   0.74994   0.56805   1.000
    H59     H    0.80043   0.74871   0.56631   1.000
    H60     H    0.40491   0.75732   0.56714   1.000
    H61     H    0.90466   0.75706   0.56634   1.000
    H62     H    0.28738   0.96992   0.39789   1.000
    H63     H    0.78726   0.96624   0.39400   1.000
    H64     H    0.98711   0.59855   0.78573   1.000
    H65     H    0.48660   0.59857   0.78614   1.000
    H66     H    0.98140   0.48489   0.55626   1.000
    H67     H    0.48205   0.48564   0.55640   1.000
    H68     H    0.99716   0.30176   0.75060   1.000
    H69     H    0.50249   0.30231   0.75056   1.000
    H70     H    0.98819   0.64769   0.57952   1.000
    H71     H    0.48787   0.64860   0.58004   1.000
    H72     H    0.98946   0.69607   0.66739   1.000
    H73     H    0.48871   0.69664   0.66806   1.000
    H74     H    0.01416   0.39818   0.21565   1.000
    H75     H    0.51377   0.39864   0.21499   1.000
    H76     H    0.01859   0.51154   0.44518   1.000
    H77     H    0.51794   0.51204   0.44450   1.000
    H78     H    0.00645   0.69500   0.25094   1.000
    H79     H    0.50539   0.69546   0.25023   1.000
    H80     H    0.01196   0.34895   0.42187   1.000
    H81     H    0.51245   0.34965   0.42151   1.000
    H82     H    0.01076   0.30046   0.33398   1.000
    H83     H    0.51033   0.30096   0.33379   1.000
    H84     H    0.98390   0.90086   0.28590   1.000
    H85     H    0.48252   0.90262   0.28710   1.000
    H86     H    0.98441   0.01368   0.05618   1.000
    H87     H    0.48566   0.01298   0.05702   1.000
    H88     H    0.00204   0.19448   0.25011   1.000
    H89     H    0.50443   0.19501   0.24990   1.000
    H90     H    0.98586   0.85033   0.07972   1.000
    H91     H    0.48128   0.85095   0.08034   1.000
    C92     C    0.48371   0.55403   0.66708   1.000
    C93     C    0.99253   0.30212   0.59702   1.000
    C94     C    0.49516   0.30278   0.59699   1.000
    C95     C    0.98735   0.53914   0.74696   1.000
    H96     H    0.98719   0.80214   0.16784   1.000
    H97     H    0.48521   0.80262   0.16881   1.000
    H98     H    0.01714   0.09573   0.71436   1.000
    H99     H    0.48947   0.09738   0.71120   1.000
    H100    H    0.02001   0.98218   0.94400   1.000
    H101    H    0.47861   0.98361   0.93891   1.000
    H102    H    0.00437   0.80089   0.75033   1.000
    H103    H    0.50869   0.80141   0.75053   1.000
    H104    H    0.01839   0.14628   0.92098   1.000
    H105    H    0.48087   0.14704   0.91655   1.000
    H106    H    0.01731   0.19451   0.83235   1.000
    H107    H    0.48496   0.19547   0.82911   1.000
    C108    C    0.37097   0.58285   0.92785   1.000
    C109    C    0.87125   0.58978   0.92869   1.000
    C110    C    0.31332   0.68942   0.02900   1.000
    C111    C    0.81431   0.68441   0.03793   1.000
    C112    C    0.37189   0.68870   0.02752   1.000
    C113    C    0.87288   0.68404   0.03610   1.000
    C114    C    0.28209   0.63317   0.97804   1.000
    C115    C    0.78277   0.63463   0.98249   1.000
    C116    C    0.31240   0.57989   0.92583   1.000
    C117    C    0.81266   0.58716   0.92650   1.000
    C118    C    0.37641   0.41816   0.06816   1.000
    C119    C    0.87727   0.41804   0.07324   1.000
    C120    C    0.31630   0.30775   0.96888   1.000
    C121    C    0.81543   0.32294   0.96442   1.000
    C122    C    0.37482   0.31138   0.96924   1.000
    C123    C    0.87396   0.32570   0.96485   1.000
    N124    N    0.40051   0.63535   0.97830   1.000
    N125    N    0.90110   0.63676   0.98279   1.000
    N126    N    0.40457   0.36634   0.01762   1.000
    N127    N    0.90450   0.37306   0.01792   1.000
    N128    N    0.10326   0.86713   0.48559   1.000
    C129    C    0.28624   0.36281   0.02027   1.000
    C130    C    0.78640   0.37058   0.02121   1.000
    C131    C    0.31796   0.41846   0.07120   1.000
    C132    C    0.81883   0.41847   0.07689   1.000
    C133    C    0.12874   0.89277   0.42254   1.000
    C134    C    0.62849   0.89218   0.42031   1.000
    C135    C    0.19455   0.83360   0.54850   1.000
    C136    C    0.69435   0.83148   0.54580   1.000
    C137    C    0.13585   0.83735   0.54724   1.000
    C138    C    0.63567   0.83612   0.54485   1.000
    C139    C    0.22181   0.86116   0.48352   1.000
    C140    C    0.72158   0.85903   0.48073   1.000
    C141    C    0.18722   0.89082   0.41929   1.000
    C142    C    0.68695   0.88930   0.41671   1.000
    C143    C    0.13128   0.08109   0.56493   1.000
    C144    C    0.63114   0.07820   0.56356   1.000
    C145    C    0.18210   0.19865   0.47009   1.000
    C146    C    0.68240   0.19559   0.46914   1.000
    C147    C    0.12362   0.19460   0.47040   1.000
    C148    C    0.62388   0.19218   0.46958   1.000
    C149    C    0.21693   0.14006   0.51875   1.000
    C150    C    0.71706   0.13648   0.51758   1.000
    C151    C    0.18993   0.08050   0.56726   1.000
    C152    C    0.68982   0.07697   0.56589   1.000
    C153    C    0.13607   0.38330   0.08273   1.000
    C154    C    0.63684   0.37054   0.08580   1.000
    C155    C    0.19095   0.34269   0.95289   1.000
    C156    C    0.69096   0.36880   0.95193   1.000
    C157    C    0.13240   0.34361   0.95427   1.000
    C158    C    0.63249   0.36787   0.95321   1.000
    C159    C    0.22382   0.36279   0.01991   1.000
    C160    C    0.72408   0.37048   0.02119   1.000
    C161    C    0.19479   0.38317   0.08606   1.000
    C162    C    0.69557   0.37161   0.08941   1.000
    C163    C    0.12745   0.60651   0.91929   1.000
    C164    C    0.62779   0.62623   0.91901   1.000
    C165    C    0.19301   0.64310   0.04896   1.000
    C166    C    0.69365   0.63069   0.05287   1.000
    C167    C    0.13462   0.63838   0.04918   1.000
    C168    C    0.63509   0.62736   0.05168   1.000
    C169    C    0.22001   0.62895   0.98026   1.000
    C170    C    0.72059   0.63148   0.98348   1.000
    C171    C    0.18561   0.61017   0.91432   1.000
    C172    C    0.68611   0.62897   0.91538   1.000
    C173    C    0.37247   0.10738   0.57890   1.000
    C174    C    0.87261   0.10412   0.57810   1.000
    C175    C    0.30648   0.16814   0.45356   1.000
    C176    C    0.80673   0.16377   0.45240   1.000
    C177    C    0.36518   0.16462   0.45474   1.000
    C178    C    0.86543   0.16023   0.45369   1.000
    C179    C    0.27932   0.13977   0.51845   1.000
    C180    C    0.77948   0.13582   0.51734   1.000
    C181    C    0.31402   0.10951   0.58238   1.000
    C182    C    0.81414   0.10594   0.58145   1.000
    C183    C    0.37013   0.91920   0.43785   1.000
    C184    C    0.86997   0.91649   0.43498   1.000
    C185    C    0.31880   0.80040   0.53108   1.000
    C186    C    0.81853   0.79878   0.52901   1.000
    C187    C    0.37732   0.80352   0.53047   1.000
    C188    C    0.87705   0.80234   0.52890   1.000
    C189    C    0.28421   0.86035   0.48327   1.000
    C190    C    0.78398   0.85796   0.48048   1.000
    C191    C    0.31146   0.92054   0.43558   1.000
    C192    C    0.81129   0.91751   0.43232   1.000
    C193    C    0.99681   0.43016   0.86166   1.000
    C194    C    0.49831   0.42991   0.86163   1.000
    C195    C    0.99239   0.44848   0.77705   1.000
    C196    C    0.49435   0.44868   0.77713   1.000
    C197    C    0.98991   0.38537   0.64843   1.000
    C198    C    0.49259   0.38598   0.64843   1.000
    C199    C    0.98317   0.55361   0.66677   1.000
    C200    C    0.48794   0.53934   0.74723   1.000
    C201    C    0.98454   0.47537   0.61830   1.000
    C202    C    0.48580   0.47596   0.61845   1.000
    C203    C    0.99349   0.37193   0.72781   1.000
    C204    C    0.49694   0.37237   0.72778   1.000
    C205    C    0.00681   0.56640   0.13990   1.000
    C206    C    0.50614   0.56686   0.13913   1.000
    C207    C    0.01024   0.54826   0.22450   1.000
    C208    C    0.50943   0.54870   0.22378   1.000
    C209    C    0.01176   0.61118   0.35310   1.000
    C210    C    0.51077   0.61170   0.35245   1.000
    C211    C    0.00000   0.44292   0.33466   1.000
    C212    C    0.51721   0.44344   0.33399   1.000
    C213    C    0.00880   0.69422   0.40467   1.000
    C214    C    0.50766   0.69463   0.40422   1.000
    C215    C    0.00000   0.45752   0.25450   1.000
    C216    C    0.51356   0.45799   0.25383   1.000
    C217    C    0.01623   0.52112   0.38316   1.000
    C218    C    0.51555   0.52164   0.38248   1.000
    C219    C    0.00930   0.62480   0.27375   1.000
    C220    C    0.50833   0.62527   0.27307   1.000
    C221    C    0.99372   0.06762   0.36129   1.000
    C222    C    0.49387   0.06966   0.36149   1.000
    C223    C    0.99246   0.04944   0.27681   1.000
    C224    C    0.49305   0.05064   0.27724   1.000
    C225    C    0.99438   0.11180   0.14807   1.000
    C226    C    0.49609   0.11165   0.14831   1.000
    C227    C    0.98315   0.94541   0.16680   1.000
    C228    C    0.48259   0.94600   0.16783   1.000
    C229    C    0.99943   0.19379   0.09614   1.000
    C230    C    0.50163   0.19303   0.09597   1.000
    C231    C    0.98622   0.95972   0.24694   1.000
    C232    C    0.48579   0.96096   0.24788   1.000
    C233    C    0.98703   0.02292   0.11818   1.000
    C234    C    0.48776   0.02282   0.11891   1.000
    C235    C    0.99682   0.12513   0.22741   1.000
    C236    C    0.49850   0.12569   0.22753   1.000
    C237    C    0.00814   0.92874   0.63900   1.000
    C238    C    0.50431   0.92928   0.63838   1.000
    C239    C    0.01073   0.94669   0.72350   1.000
    C240    C    0.49873   0.94758   0.72197   1.000
    C241    C    0.01118   0.88382   0.85232   1.000
    C242    C    0.49399   0.88465   0.84996   1.000
    C243    C    0.01996   0.05080   0.83352   1.000
    C244    C    0.48263   0.05249   0.82903   1.000
    C245    C    0.00753   0.80153   0.90427   1.000
    C246    C    0.49645   0.80199   0.90240   1.000
    C247    C    0.01606   0.03660   0.75332   1.000
    C248    C    0.48997   0.03798   0.75020   1.000
    C249    C    0.01721   0.97298   0.88200   1.000
    C250    C    0.48444   0.97431   0.87799   1.000
    C251    C    0.00840   0.87050   0.77290   1.000
    C252    C    0.50119   0.87122   0.77100   1.000
    N253    N    0.60309   0.86681   0.48349   1.000
    N254    N    0.09843   0.13630   0.51688   1.000
    N255    N    0.59845   0.13397   0.51500   1.000
    N256    N    0.10513   0.36418   0.01795   1.000
    N257    N    0.60561   0.36884   0.01895   1.000
    N258    N    0.10216   0.62006   0.98559   1.000
    N259    N    0.60247   0.62501   0.98600   1.000
    N260    N    0.39784   0.13397   0.51604   1.000
    N261    N    0.89805   0.13023   0.51520   1.000
    N262    N    0.40279   0.86241   0.48487   1.000
    N263    N    0.90255   0.86076   0.48294   1.000
    N264    N    0.97577   0.64196   0.63460   1.000
    N265    N    0.47543   0.64242   0.63508   1.000
    N266    N    0.02446   0.35453   0.36681   1.000
    N267    N    0.52446   0.35509   0.36620   1.000
    N268    N    0.97413   0.85850   0.13502   1.000
    N269    N    0.47203   0.85941   0.13661   1.000
    N270    N    0.02865   0.13747   0.86516   1.000
    N271    N    0.47154   0.14031   0.85873   1.000
    O272    O    0.99496   0.49662   0.90980   1.000
    O273    O    0.49616   0.49613   0.91003   1.000
    O274    O    0.00213   0.34510   0.88394   1.000
    O275    O    0.50366   0.34482   0.88372   1.000
    O276    O    0.99498   0.22160   0.62906   1.000
    O277    O    0.49851   0.22228   0.62910   1.000
    O278    O    0.99243   0.31255   0.52461   1.000
    O279    O    0.49373   0.31311   0.52449   1.000
    O280    O    0.00536   0.49954   0.09210   1.000
    O281    O    0.50354   0.50030   0.09099   1.000
    O282    O    0.00545   0.65136   0.11732   1.000
    O283    O    0.50618   0.65176   0.11672   1.000
    O284    O    0.00741   0.77487   0.37290   1.000
    O285    O    0.50619   0.77540   0.37260   1.000
    O286    O    0.00752   0.68354   0.47684   1.000
    O287    O    0.50645   0.68372   0.47639   1.000
    O288    O    0.99259   0.00105   0.40960   1.000
    O289    O    0.49375   0.00343   0.41034   1.000
    O290    O    0.99487   0.15241   0.38339   1.000
    O291    O    0.49382   0.15468   0.38310   1.000
    O292    O    0.00778   0.27298   0.12791   1.000
    O293    O    0.51364   0.27125   0.12717   1.000
    O294    O    0.99484   0.18399   0.02370   1.000
    O295    O    0.49376   0.18392   0.02380   1.000
    O296    O    0.00752   0.99546   0.59047   1.000
    O297    O    0.50136   0.99587   0.58963   1.000
    O298    O    0.00751   0.84392   0.61684   1.000
    O299    O    0.51109   0.84456   0.61707   1.000
    O300    O    0.00488   0.72094   0.87283   1.000
    O301    O    0.50610   0.72162   0.87272   1.000
    O302    O    0.00727   0.81237   0.97649   1.000
    O303    O    0.48892   0.81232   0.97345   1.000
loop_
    _geom_bond_atom_site_label_1
    _geom_bond_atom_site_label_2
    _geom_bond_distance
    _geom_bond_site_symmetry_2
    _ccdc_geom_bond_type
    N126   C118      1.34607      .   S
    N126   C122      1.34736  1_554   S
    N127   C119      1.34559      .   S
    N127   C123      1.34594  1_554   S
    N256   C153      1.34620      .   S
    N256   C157      1.34652  1_554   S
    N257   C154      1.34542      .   S
    N257   C158      1.34571  1_554   S
    C159   C129      1.47991      .   S
    C159   C161      1.40474      .   S
    C159   C155      1.40426  1_554   S
    C129   C131      1.40407      .   S
    C129   C120      1.40469  1_554   S
    C160   C130      1.47807      .   S
    C160   C162      1.40415      .   S
    C160   C156      1.40303  1_554   S
    C130   C132      1.40336      .   S
    C130   C121      1.40421  1_554   S
    O294   C229      1.27168      .   S
    O295   C230      1.27070      .   S
    C112   C110      1.39058      .   S
    C112   H4        1.09101      .   S
    C112   N124      1.34805  1_554   S
    C110   H2        1.09047      .   S
    C110   C114      1.40342  1_554   S
    C113   C111      1.39125      .   S
    C113   H5        1.09192      .   S
    C113   N125      1.34747  1_554   S
    C111   H3        1.08960      .   S
    C111   C115      1.40377  1_554   S
    C165   C167      1.38970      .   S
    C165   H42       1.08939      .   S
    C165   C169      1.40427  1_554   S
    C167   H44       1.09118      .   S
    C167   N258      1.34572  1_554   S
    C168   C166      1.39039      .   S
    C168   H45       1.09075      .   S
    C168   N259      1.34590  1_554   S
    C166   H43       1.08964      .   S
    C166   C170      1.40343  1_554   S
    H86    C233      1.08937      .   S
    H87    C234      1.08862      .   S
    C118   C131      1.39032      .   S
    C118   H8        1.09045      .   S
    C131   H14       1.08923      .   S
    C119   C132      1.39100      .   S
    C119   H9        1.09027      .   S
    C132   H15       1.08955      .   S
    H90    N268      1.02629      .   S
    H91    N269      1.02573      .   S
    C153   C161      1.39029      .   S
    C153   H32       1.09103      .   S
    C154   C162      1.39135      .   S
    C154   H33       1.09198      .   S
    C161   H38       1.08928      .   S
    C162   H39       1.08957      .   S
    O281   C206      1.27668      .   S
    O280   C205      1.27519      .   S
    C230   O293      1.28695      .   S
    C230   C226      1.49990      .   S
    C229   O292      1.28636  1_655   S
    C229   C225      1.50067      .   S
    O283   C206      1.28305      .   S
    O282   C205      1.28327      .   S
    C233   C225      1.39644      .   S
    C233   C227      1.41061  1_545   S
    C234   C226      1.39624      .   S
    C234   C228      1.41039  1_545   S
    N268   C227      1.38911      .   S
    N268   H96       1.01954      .   S
    N269   C228      1.38778      .   S
    N269   H97       1.01923      .   S
    C206   C208      1.49763      .   S
    C205   C207      1.49666      .   S
    C225   C235      1.39705      .   S
    C226   C236      1.39643      .   S
    C227   C231      1.41278      .   S
    C228   C232      1.41265      .   S
    H75    C216      1.09168      .   S
    H74    C215      1.14357      .   S
    C208   C216      1.40427      .   S
    C208   C220      1.39987      .   S
    C207   C215      1.44235      .   S
    C207   C219      1.39902      .   S
    C235   H88       1.08384  1_655   S
    C235   C223      1.40009      .   S
    C236   H89       1.08388      .   S
    C236   C224      1.40006      .   S
    C231   C223      1.40396  1_565   S
    C231   H84       1.09134      .   S
    C232   C224      1.40352  1_565   S
    C232   H85       1.09125      .   S
    H79    C220      1.08392      .   S
    H78    C219      1.08393      .   S
    C216   C212      1.41207      .   S
    C215   C211      1.41516      .   S
    C220   C210      1.39700      .   S
    C219   C209      1.39657      .   S
    C223   C221      1.49736      .   S
    C224   C222      1.49596      .   S
    H83    N267      1.02008      .   S
    H82    N266      1.01994      .   S
    C212   N267      1.38996      .   S
    C212   C218      1.41036      .   S
    C211   N266      1.47270      .   S
    C211   C217      1.46057      .   S
    C210   C218      1.39576      .   S
    C210   C214      1.50058      .   S
    C209   C217      1.39572      .   S
    C209   C213      1.49958      .   S
    C221   O290      1.28174      .   S
    C221   O288      1.27812      .   S
    C222   O291      1.28134      .   S
    C222   O289      1.27886      .   S
    H23    C142      1.08892      .   S
    N267   H81       1.02688      .   S
    H22    C141      1.08909      .   S
    N266   H80       1.02690      .   S
    H17    C134      1.09104      .   S
    O285   C214      1.28497      .   S
    O284   C213      1.28454      .   S
    H16    C133      1.09095      .   S
    C218   H77       1.08940      .   S
    C217   H76       1.08939      .   S
    H63    C192      1.08841      .   S
    H62    C191      1.08841      .   S
    H57    C184      1.09016      .   S
    H51    C176      1.09030      .   S
    H50    C175      1.08923      .   S
    H56    C183      1.09014      .   S
    H53    C178      1.09179      .   S
    C214   O287      1.27193      .   S
    C213   O286      1.27168      .   S
    H52    C177      1.09156      .   S
    C142   C134      1.39040      .   S
    C142   C140      1.40477      .   S
    C141   C133      1.39045      .   S
    C141   C139      1.40462      .   S
    C134   N253      1.34544      .   S
    C133   N128      1.34557      .   S
    H27    C146      1.08913      .   S
    H29    C148      1.09312      .   S
    C192   C184      1.38905      .   S
    C192   C190      1.40402      .   S
    H26    C145      1.08915      .   S
    H28    C147      1.09166      .   S
    C184   N263      1.34577      .   S
    C191   C183      1.38904      .   S
    C191   C189      1.40400      .   S
    C183   N262      1.34607      .   S
    C176   C178      1.38986      .   S
    C176   C180      1.40481      .   S
    C175   C177      1.38975      .   S
    C175   C179      1.40489      .   S
    C178   N261      1.34551      .   S
    C177   N260      1.34603      .   S
    C146   C148      1.39117      .   S
    C146   C150      1.40431      .   S
    C148   N255      1.33898      .   S
    C145   C147      1.39083      .   S
    C145   C149      1.40433      .   S
    C147   N254      1.34843      .   S
    C190   C140      1.47963      .   S
    C190   C186      1.40435      .   S
    C140   C136      1.40472      .   S
    N263   C188      1.34758      .   S
    C189   C139      1.47970      .   S
    C189   C185      1.40426      .   S
    N253   C138      1.34593      .   S
    C139   C135      1.40383      .   S
    N262   C187      1.34767      .   S
    N128   C137      1.34598      .   S
    N255   C144      1.35365      .   S
    N261   C174      1.34489      .   S
    N260   C173      1.34557      .   S
    N254   C143      1.34573      .   S
    C180   C150      1.48017      .   S
    C180   C182      1.40475      .   S
    C150   C152      1.40435      .   S
    C179   C149      1.47961      .   S
    C179   C181      1.40442      .   S
    C149   C151      1.40412      .   S
    O279   C94       1.27277      .   S
    O278   C93       1.27297      .   S
    C188   C186      1.39104      .   S
    C188   H61       1.09231      .   S
    C186   H59       1.08914      .   S
    C187   C185      1.39116      .   S
    C187   H60       1.09218      .   S
    C185   H58       1.08909      .   S
    C138   C136      1.38959      .   S
    C138   H21       1.09165      .   S
    C136   H19       1.08936      .   S
    C137   C135      1.38994      .   S
    C137   H20       1.09158      .   S
    C135   H18       1.09016      .   S
    H66    C201      1.08954      .   S
    H67    C202      1.09013      .   S
    C144   C152      1.38924      .   S
    C144   H25       1.08983      .   S
    C143   C151      1.38892      .   S
    C143   H24       1.09005      .   S
    C152   H31       1.08836      .   S
    C151   H30       1.08830      .   S
    C174   C182      1.39067      .   S
    C174   H49       1.09183      .   S
    C173   C181      1.39014      .   S
    C173   H48       1.09065      .   S
    H70    N264      1.02681      .   S
    H71    N265      1.02685      .   S
    C182   H55       1.08875      .   S
    C181   H54       1.08890      .   S
    O297   C238      1.27816      .   S
    O296   C237      1.27913      .   S
    C94    O277      1.28424      .   S
    C94    C198      1.49965      .   S
    C93    O276      1.28414      .   S
    C93    C197      1.49996      .   S
    O298   C237      1.28205      .   S
    O299   C238      1.28232      .   S
    C201   C197      1.39588      .   S
    C201   C199      1.41046      .   S
    C202   C198      1.39611      .   S
    C202   C92       1.41064      .   S
    N264   C199      1.39002      .   S
    N264   H72       1.01999      .   S
    N265   C92       1.39084      .   S
    N265   H73       1.01999      .   S
    C238   C240      1.49623      .   S
    C237   C239      1.49642      .   S
    C198   C204      1.39623      .   S
    C197   C203      1.39638      .   S
    C199   C95       1.41242      .   S
    C92    C200      1.41219      .   S
    H99    C248      1.09168      .   S
    H98    C247      1.09120      .   S
    C240   C248      1.40422  1_565   S
    C240   C252      1.38965      .   S
    C239   C247      1.40375  1_565   S
    C239   C251      1.39955      .   S
    C204   H69       1.08380      .   S
    C204   C196      1.39883      .   S
    C203   H68       1.08342      .   S
    C203   C195      1.39922      .   S
    C95    C195      1.40419      .   S
    C95    H64       1.09167      .   S
    C200   C196      1.40417      .   S
    C200   H65       1.09162      .   S
    C248   C244      1.41247      .   S
    H102   C251      1.08328      .   S
    H103   C252      1.07864      .   S
    C247   C243      1.41370      .   S
    C252   C242      1.41199      .   S
    C251   C241      1.39833      .   S
    C195   C193      1.49718      .   S
    C196   C194      1.49642      .   S
    C244   N271      1.38816      .   S
    C244   C250      1.41028  1_545   S
    H107   N271      1.01950      .   S
    H106   N270      1.01830      .   S
    C243   N270      1.38375      .   S
    C243   C249      1.40949  1_545   S
    C242   C250      1.39555      .   S
    C242   C246      1.49781      .   S
    C241   C249      1.39469      .   S
    C241   C245      1.49970      .   S
    N271   H105      1.02624      .   S
    H46    C171      1.08936      .   S
    H47    C172      1.08969      .   S
    C194   O275      1.28295      .   S
    C194   O273      1.27639      .   S
    C193   O274      1.28344  1_655   S
    C193   O272      1.27564      .   S
    N270   H104      1.02537      .   S
    H41    C164      1.09061      .   S
    H40    C163      1.09078      .   S
    O301   C246      1.28598      .   S
    O300   C245      1.28669      .   S
    C250   H101      1.08862      .   S
    C249   H100      1.08933      .   S
    H7     C117      1.08946      .   S
    H6     C116      1.08924      .   S
    H1     C109      1.09030      .   S
    H0     C108      1.09003      .   S
    H35    C156      1.08951      .   S
    H34    C155      1.08918      .   S
    H37    C158      1.09025      .   S
    C246   O303      1.27202      .   S
    H36    C157      1.09097      .   S
    C245   O302      1.27126      .   S
    C171   C163      1.39047      .   S
    C171   C169      1.40417      .   S
    C172   C164      1.39069      .   S
    C172   C170      1.40373      .   S
    C164   N259      1.34678      .   S
    C163   N258      1.34609      .   S
    H11    C121      1.08931      .   S
    H13    C123      1.09119      .   S
    C116   C108      1.38983      .   S
    C116   C114      1.40375      .   S
    C117   C109      1.38983      .   S
    C117   C115      1.40342      .   S
    C108   N124      1.34570      .   S
    C109   N125      1.34660      .   S
    H10    C120      1.08921      .   S
    H12    C122      1.09144      .   S
    C156   C158      1.38884      .   S
    C155   C157      1.38978      .   S
    C121   C123      1.38971      .   S
    C120   C122      1.39057      .   S
    C114   C169      1.47880      .   S
    C115   C170      1.47832      .   S
