# CIF file generated by openbabel 2.4.90, see http://openbabel.sf.net
data_I
_chemical_name_common ''
_cell_length_a 23.716
_cell_length_b 14.398
_cell_length_c 17.462
_cell_angle_alpha 89.922
_cell_angle_beta 93.421
_cell_angle_gamma 87.6
_space_group_name_H-M_alt 'P 1'
_space_group_name_Hall 'P 1'
loop_
    _symmetry_equiv_pos_as_xyz
    x,y,z
loop_
    _atom_site_label
    _atom_site_type_symbol
    _atom_site_fract_x
    _atom_site_fract_y
    _atom_site_fract_z
    _atom_site_occupancy
    Cd0     Cd   0.50113   0.63620   0.98445   1.000
    Cd1     Cd   0.00504   0.36007   0.01662   1.000
    Cd2     Cd   0.50527   0.35960   0.01620   1.000
    Cd3     Cd   0.00286   0.86060   0.48441   1.000
    Cd4     Cd   0.50293   0.86128   0.48404   1.000
    Cd5     Cd   0.99834   0.13649   0.51627   1.000
    Cd6     Cd   0.49804   0.13726   0.51611   1.000
    H7      H    0.39605   0.54119   0.88920   1.000
    H8      H    0.89608   0.55260   0.88702   1.000
    H9      H    0.29233   0.73492   0.06934   1.000
    H10     H    0.79347   0.72489   0.08159   1.000
    H11     H    0.39716   0.73200   0.06630   1.000
    H12     H    0.89853   0.72271   0.07803   1.000
    H13     H    0.29095   0.53376   0.88535   1.000
    H14     H    0.79071   0.54619   0.88256   1.000
    H15     H    0.40235   0.46114   0.10630   1.000
    H16     H    0.90393   0.45500   0.11500   1.000
    H17     H    0.29468   0.26058   0.92946   1.000
    H18     H    0.79281   0.28216   0.92100   1.000
    H19     H    0.39914   0.26883   0.93020   1.000
    H20     H    0.89798   0.28901   0.92199   1.000
    H21     H    0.29740   0.46396   0.11184   1.000
    H22     H    0.79877   0.45776   0.12189   1.000
    H23     H    0.10072   0.91505   0.37354   1.000
    H24     H    0.60042   0.91515   0.37156   1.000
    H25     H    0.21872   0.81092   0.60074   1.000
    H26     H    0.71856   0.80824   0.59779   1.000
    H27     H    0.11322   0.81679   0.59677   1.000
    H28     H    0.61295   0.81590   0.59439   1.000
    H29     H    0.20541   0.91110   0.36627   1.000
    H30     H    0.70508   0.90952   0.36364   1.000
    H31     H    0.10889   0.03578   0.60169   1.000
    Cd32    Cd   0.00159   0.63662   0.98508   1.000
    H33     H    0.60867   0.03288   0.60020   1.000
    H34     H    0.19994   0.24868   0.43249   1.000
    H35     H    0.70043   0.24562   0.43173   1.000
    H36     H    0.09579   0.23940   0.43292   1.000
    H37     H    0.59619   0.23749   0.43220   1.000
    H38     H    0.21418   0.03218   0.60570   1.000
    H39     H    0.71392   0.02821   0.60411   1.000
    H40     H    0.11228   0.39887   0.13307   1.000
    H41     H    0.61326   0.37012   0.13763   1.000
    H42     H    0.21055   0.32748   0.89922   1.000
    H43     H    0.71044   0.36938   0.89699   1.000
    H44     H    0.10563   0.32764   0.90341   1.000
    H45     H    0.60553   0.36556   0.90050   1.000
    H46     H    0.21763   0.39756   0.14044   1.000
    H47     H    0.71890   0.37130   0.14509   1.000
    H48     H    0.09941   0.59346   0.86900   1.000
    H49     H    0.59954   0.62647   0.86738   1.000
    H50     H    0.21726   0.65668   0.10244   1.000
    H51     H    0.71807   0.63143   0.10772   1.000
    H52     H    0.11220   0.64984   0.10135   1.000
    H53     H    0.61276   0.62728   0.10450   1.000
    H54     H    0.20369   0.60035   0.85885   1.000
    H55     H    0.70438   0.63137   0.85965   1.000
    H56     H    0.40049   0.08375   0.62746   1.000
    H57     H    0.90068   0.08151   0.62702   1.000
    H58     H    0.28227   0.19131   0.40156   1.000
    H59     H    0.78256   0.18663   0.40020   1.000
    H60     H    0.38771   0.18589   0.40534   1.000
    H61     H    0.88800   0.18113   0.40420   1.000
    H62     H    0.29601   0.08859   0.63534   1.000
    H63     H    0.79601   0.08530   0.63440   1.000
    H64     H    0.39272   0.96514   0.40184   1.000
    H65     H    0.89265   0.96190   0.39864   1.000
    H66     H    0.30073   0.74994   0.56805   1.000
    H67     H    0.80043   0.74871   0.56631   1.000
    H68     H    0.40491   0.75732   0.56714   1.000
    H69     H    0.90466   0.75706   0.56634   1.000
    H70     H    0.28738   0.96992   0.39789   1.000
    H71     H    0.78726   0.96624   0.39400   1.000
    H72     H    0.98711   0.59855   0.78573   1.000
    H73     H    0.48660   0.59857   0.78614   1.000
    H74     H    0.98140   0.48489   0.55626   1.000
    H75     H    0.48205   0.48564   0.55640   1.000
    H76     H    0.99716   0.30176   0.75060   1.000
    H77     H    0.50249   0.30231   0.75056   1.000
    H78     H    0.98819   0.64769   0.57952   1.000
    H79     H    0.48787   0.64860   0.58004   1.000
    H80     H    0.98946   0.69607   0.66739   1.000
    H81     H    0.48871   0.69664   0.66806   1.000
    H82     H    0.01416   0.39818   0.21565   1.000
    H83     H    0.51377   0.39864   0.21499   1.000
    H84     H    0.01859   0.51154   0.44518   1.000
    H85     H    0.51794   0.51204   0.44450   1.000
    H86     H    0.00645   0.69500   0.25094   1.000
    H87     H    0.50539   0.69546   0.25023   1.000
    H88     H    0.01196   0.34895   0.42187   1.000
    H89     H    0.51245   0.34965   0.42151   1.000
    H90     H    0.01076   0.30046   0.33398   1.000
    H91     H    0.51033   0.30096   0.33379   1.000
    H92     H    0.98390   0.90086   0.28590   1.000
    H93     H    0.48252   0.90262   0.28710   1.000
    H94     H    0.98441   0.01368   0.05618   1.000
    H95     H    0.48566   0.01298   0.05702   1.000
    H96     H    0.00204   0.19448   0.25011   1.000
    H97     H    0.50443   0.19501   0.24990   1.000
    H98     H    0.98586   0.85033   0.07972   1.000
    H99     H    0.48128   0.85095   0.08034   1.000
    C100    C    0.48371   0.55403   0.66708   1.000
    C101    C    0.99253   0.30212   0.59702   1.000
    C102    C    0.49516   0.30278   0.59699   1.000
    C103    C    0.98735   0.53914   0.74696   1.000
    H104    H    0.98719   0.80214   0.16784   1.000
    H105    H    0.48521   0.80262   0.16881   1.000
    H106    H    0.01714   0.09573   0.71436   1.000
    H107    H    0.48947   0.09738   0.71120   1.000
    H108    H    0.02001   0.98218   0.94400   1.000
    H109    H    0.47861   0.98361   0.93891   1.000
    H110    H    0.00437   0.80089   0.75033   1.000
    H111    H    0.50869   0.80141   0.75053   1.000
    H112    H    0.01839   0.14628   0.92098   1.000
    H113    H    0.48087   0.14704   0.91655   1.000
    H114    H    0.01731   0.19451   0.83235   1.000
    H115    H    0.48496   0.19547   0.82911   1.000
    C116    C    0.37097   0.58285   0.92785   1.000
    C117    C    0.87125   0.58978   0.92869   1.000
    C118    C    0.31332   0.68942   0.02900   1.000
    C119    C    0.81431   0.68441   0.03793   1.000
    C120    C    0.37189   0.68870   0.02752   1.000
    C121    C    0.87288   0.68404   0.03610   1.000
    C122    C    0.28209   0.63317   0.97804   1.000
    C123    C    0.78277   0.63463   0.98249   1.000
    C124    C    0.31240   0.57989   0.92583   1.000
    C125    C    0.81266   0.58716   0.92650   1.000
    C126    C    0.37641   0.41816   0.06816   1.000
    C127    C    0.87727   0.41804   0.07324   1.000
    C128    C    0.31630   0.30775   0.96888   1.000
    C129    C    0.81543   0.32294   0.96442   1.000
    C130    C    0.37482   0.31138   0.96924   1.000
    C131    C    0.87396   0.32570   0.96485   1.000
    N132    N    0.40051   0.63535   0.97830   1.000
    N133    N    0.90110   0.63676   0.98279   1.000
    N134    N    0.40457   0.36634   0.01762   1.000
    N135    N    0.90450   0.37306   0.01792   1.000
    N136    N    0.10326   0.86713   0.48559   1.000
    C137    C    0.28624   0.36281   0.02027   1.000
    C138    C    0.78640   0.37058   0.02121   1.000
    C139    C    0.31796   0.41846   0.07120   1.000
    C140    C    0.81883   0.41847   0.07689   1.000
    C141    C    0.12874   0.89277   0.42254   1.000
    C142    C    0.62849   0.89218   0.42031   1.000
    C143    C    0.19455   0.83360   0.54850   1.000
    C144    C    0.69435   0.83148   0.54580   1.000
    C145    C    0.13585   0.83735   0.54724   1.000
    C146    C    0.63567   0.83612   0.54485   1.000
    C147    C    0.22181   0.86116   0.48352   1.000
    C148    C    0.72158   0.85903   0.48073   1.000
    C149    C    0.18722   0.89082   0.41929   1.000
    C150    C    0.68695   0.88930   0.41671   1.000
    C151    C    0.13128   0.08109   0.56493   1.000
    C152    C    0.63114   0.07820   0.56356   1.000
    C153    C    0.18210   0.19865   0.47009   1.000
    C154    C    0.68240   0.19559   0.46914   1.000
    C155    C    0.12362   0.19460   0.47040   1.000
    C156    C    0.62388   0.19218   0.46958   1.000
    C157    C    0.21693   0.14006   0.51875   1.000
    C158    C    0.71706   0.13648   0.51758   1.000
    C159    C    0.18993   0.08050   0.56726   1.000
    C160    C    0.68982   0.07697   0.56589   1.000
    C161    C    0.13607   0.38330   0.08273   1.000
    C162    C    0.63684   0.37054   0.08580   1.000
    C163    C    0.19095   0.34269   0.95289   1.000
    C164    C    0.69096   0.36880   0.95193   1.000
    C165    C    0.13240   0.34361   0.95427   1.000
    C166    C    0.63249   0.36787   0.95321   1.000
    C167    C    0.22382   0.36279   0.01991   1.000
    C168    C    0.72408   0.37048   0.02119   1.000
    C169    C    0.19479   0.38317   0.08606   1.000
    C170    C    0.69557   0.37161   0.08941   1.000
    C171    C    0.12745   0.60651   0.91929   1.000
    C172    C    0.62779   0.62623   0.91901   1.000
    C173    C    0.19301   0.64310   0.04896   1.000
    C174    C    0.69365   0.63069   0.05287   1.000
    C175    C    0.13462   0.63838   0.04918   1.000
    C176    C    0.63509   0.62736   0.05168   1.000
    C177    C    0.22001   0.62895   0.98026   1.000
    C178    C    0.72059   0.63148   0.98348   1.000
    C179    C    0.18561   0.61017   0.91432   1.000
    C180    C    0.68611   0.62897   0.91538   1.000
    C181    C    0.37247   0.10738   0.57890   1.000
    C182    C    0.87261   0.10412   0.57810   1.000
    C183    C    0.30648   0.16814   0.45356   1.000
    C184    C    0.80673   0.16377   0.45240   1.000
    C185    C    0.36518   0.16462   0.45474   1.000
    C186    C    0.86543   0.16023   0.45369   1.000
    C187    C    0.27932   0.13977   0.51845   1.000
    C188    C    0.77948   0.13582   0.51734   1.000
    C189    C    0.31402   0.10951   0.58238   1.000
    C190    C    0.81414   0.10594   0.58145   1.000
    C191    C    0.37013   0.91920   0.43785   1.000
    C192    C    0.86997   0.91649   0.43498   1.000
    C193    C    0.31880   0.80040   0.53108   1.000
    C194    C    0.81853   0.79878   0.52901   1.000
    C195    C    0.37732   0.80352   0.53047   1.000
    C196    C    0.87705   0.80234   0.52890   1.000
    C197    C    0.28421   0.86035   0.48327   1.000
    C198    C    0.78398   0.85796   0.48048   1.000
    C199    C    0.31146   0.92054   0.43558   1.000
    C200    C    0.81129   0.91751   0.43232   1.000
    C201    C    0.99681   0.43016   0.86166   1.000
    C202    C    0.49831   0.42991   0.86163   1.000
    C203    C    0.99239   0.44848   0.77705   1.000
    C204    C    0.49435   0.44868   0.77713   1.000
    C205    C    0.98991   0.38537   0.64843   1.000
    C206    C    0.49259   0.38598   0.64843   1.000
    C207    C    0.98317   0.55361   0.66677   1.000
    C208    C    0.48794   0.53934   0.74723   1.000
    C209    C    0.98454   0.47537   0.61830   1.000
    C210    C    0.48580   0.47596   0.61845   1.000
    C211    C    0.99349   0.37193   0.72781   1.000
    C212    C    0.49694   0.37237   0.72778   1.000
    C213    C    0.00681   0.56640   0.13990   1.000
    C214    C    0.50614   0.56686   0.13913   1.000
    C215    C    0.01024   0.54826   0.22450   1.000
    C216    C    0.50943   0.54870   0.22378   1.000
    C217    C    0.01176   0.61118   0.35310   1.000
    C218    C    0.51077   0.61170   0.35245   1.000
    C219    C    0.00000   0.44292   0.33466   1.000
    C220    C    0.51721   0.44344   0.33399   1.000
    C221    C    0.00880   0.69422   0.40467   1.000
    C222    C    0.50766   0.69463   0.40422   1.000
    C223    C    0.00000   0.45752   0.25450   1.000
    C224    C    0.51356   0.45799   0.25383   1.000
    C225    C    0.01623   0.52112   0.38316   1.000
    C226    C    0.51555   0.52164   0.38248   1.000
    C227    C    0.00930   0.62480   0.27375   1.000
    C228    C    0.50833   0.62527   0.27307   1.000
    C229    C    0.99372   0.06762   0.36129   1.000
    C230    C    0.49387   0.06966   0.36149   1.000
    C231    C    0.99246   0.04944   0.27681   1.000
    C232    C    0.49305   0.05064   0.27724   1.000
    C233    C    0.99438   0.11180   0.14807   1.000
    C234    C    0.49609   0.11165   0.14831   1.000
    C235    C    0.98315   0.94541   0.16680   1.000
    C236    C    0.48259   0.94600   0.16783   1.000
    C237    C    0.99943   0.19379   0.09614   1.000
    C238    C    0.50163   0.19303   0.09597   1.000
    C239    C    0.98622   0.95972   0.24694   1.000
    C240    C    0.48579   0.96096   0.24788   1.000
    C241    C    0.98703   0.02292   0.11818   1.000
    C242    C    0.48776   0.02282   0.11891   1.000
    C243    C    0.99682   0.12513   0.22741   1.000
    C244    C    0.49850   0.12569   0.22753   1.000
    C245    C    0.00814   0.92874   0.63900   1.000
    C246    C    0.50431   0.92928   0.63838   1.000
    C247    C    0.01073   0.94669   0.72350   1.000
    C248    C    0.49873   0.94758   0.72197   1.000
    C249    C    0.01118   0.88382   0.85232   1.000
    C250    C    0.49399   0.88465   0.84996   1.000
    C251    C    0.01996   0.05080   0.83352   1.000
    C252    C    0.48263   0.05249   0.82903   1.000
    C253    C    0.00753   0.80153   0.90427   1.000
    C254    C    0.49645   0.80199   0.90240   1.000
    C255    C    0.01606   0.03660   0.75332   1.000
    C256    C    0.48997   0.03798   0.75020   1.000
    C257    C    0.01721   0.97298   0.88200   1.000
    C258    C    0.48444   0.97431   0.87799   1.000
    C259    C    0.00840   0.87050   0.77290   1.000
    C260    C    0.50119   0.87122   0.77100   1.000
    N261    N    0.60309   0.86681   0.48349   1.000
    N262    N    0.09843   0.13630   0.51688   1.000
    N263    N    0.59845   0.13397   0.51500   1.000
    N264    N    0.10513   0.36418   0.01795   1.000
    N265    N    0.60561   0.36884   0.01895   1.000
    N266    N    0.10216   0.62006   0.98559   1.000
    N267    N    0.60247   0.62501   0.98600   1.000
    N268    N    0.39784   0.13397   0.51604   1.000
    N269    N    0.89805   0.13023   0.51520   1.000
    N270    N    0.40279   0.86241   0.48487   1.000
    N271    N    0.90255   0.86076   0.48294   1.000
    N272    N    0.97577   0.64196   0.63460   1.000
    N273    N    0.47543   0.64242   0.63508   1.000
    N274    N    0.02446   0.35453   0.36681   1.000
    N275    N    0.52446   0.35509   0.36620   1.000
    N276    N    0.97413   0.85850   0.13502   1.000
    N277    N    0.47203   0.85941   0.13661   1.000
    N278    N    0.02865   0.13747   0.86516   1.000
    N279    N    0.47154   0.14031   0.85873   1.000
    O280    O    0.99496   0.49662   0.90980   1.000
    O281    O    0.49616   0.49613   0.91003   1.000
    O282    O    0.00213   0.34510   0.88394   1.000
    O283    O    0.50366   0.34482   0.88372   1.000
    O284    O    0.99498   0.22160   0.62906   1.000
    O285    O    0.49851   0.22228   0.62910   1.000
    O286    O    0.99243   0.31255   0.52461   1.000
    O287    O    0.49373   0.31311   0.52449   1.000
    O288    O    0.00536   0.49954   0.09210   1.000
    O289    O    0.50354   0.50030   0.09099   1.000
    O290    O    0.00545   0.65136   0.11732   1.000
    O291    O    0.50618   0.65176   0.11672   1.000
    O292    O    0.00741   0.77487   0.37290   1.000
    O293    O    0.50619   0.77540   0.37260   1.000
    O294    O    0.00752   0.68354   0.47684   1.000
    O295    O    0.50645   0.68372   0.47639   1.000
    O296    O    0.99259   0.00105   0.40960   1.000
    O297    O    0.49375   0.00343   0.41034   1.000
    O298    O    0.99487   0.15241   0.38339   1.000
    O299    O    0.49382   0.15468   0.38310   1.000
    O300    O    0.00778   0.27298   0.12791   1.000
    O301    O    0.51364   0.27125   0.12717   1.000
    O302    O    0.99484   0.18399   0.02370   1.000
    O303    O    0.49376   0.18392   0.02380   1.000
    O304    O    0.00752   0.99546   0.59047   1.000
    O305    O    0.50136   0.99587   0.58963   1.000
    O306    O    0.00751   0.84392   0.61684   1.000
    O307    O    0.51109   0.84456   0.61707   1.000
    O308    O    0.00488   0.72094   0.87283   1.000
    O309    O    0.50610   0.72162   0.87272   1.000
    O310    O    0.00727   0.81237   0.97649   1.000
    O311    O    0.48892   0.81232   0.97345   1.000
loop_
    _geom_bond_atom_site_label_1
    _geom_bond_atom_site_label_2
    _geom_bond_distance
    _geom_bond_site_symmetry_2
    _ccdc_geom_bond_type
    Cd2    N134      2.38762      .   S
    Cd2    N265      2.38656      .   S
    Cd2    O289      2.41199      .   S
    Cd2    O301      2.31059      .   S
    Cd2    O283      2.32162  1_554   S
    Cd1    N135      2.38538  1_455   S
    Cd1    N264      2.37575      .   S
    Cd1    O288      2.40355      .   S
    Cd1    O300      2.30750      .   S
    Cd1    O282      2.32434  1_554   S
    N134   C126      1.34607      .   S
    N134   C130      1.34736  1_554   S
    N135   C127      1.34559      .   S
    N135   C131      1.34594  1_554   S
    N264   C161      1.34620      .   S
    N264   C165      1.34652  1_554   S
    N265   C162      1.34542      .   S
    N265   C166      1.34571  1_554   S
    C167   C137      1.47991      .   S
    C167   C169      1.40474      .   S
    C167   C163      1.40426  1_554   S
    C137   C139      1.40407      .   S
    C137   C128      1.40469  1_554   S
    C168   C138      1.47807      .   S
    C168   C170      1.40415      .   S
    C168   C164      1.40303  1_554   S
    C138   C140      1.40336      .   S
    C138   C129      1.40421  1_554   S
    O302   C237      1.27168      .   S
    O303   C238      1.27070      .   S
    C120   C118      1.39058      .   S
    C120   H11       1.09101      .   S
    C120   N132      1.34805  1_554   S
    C118   H9        1.09047      .   S
    C118   C122      1.40342  1_554   S
    C121   C119      1.39125      .   S
    C121   H12       1.09192      .   S
    C121   N133      1.34747  1_554   S
    C119   H10       1.08960      .   S
    C119   C123      1.40377  1_554   S
    C173   C175      1.38970      .   S
    C173   H50       1.08939      .   S
    C173   C177      1.40427  1_554   S
    C175   H52       1.09118      .   S
    C175   N266      1.34572  1_554   S
    C176   C174      1.39039      .   S
    C176   H53       1.09075      .   S
    C176   N267      1.34590  1_554   S
    C174   H51       1.08964      .   S
    C174   C178      1.40343  1_554   S
    H94    C241      1.08937      .   S
    H95    C242      1.08862      .   S
    C126   C139      1.39032      .   S
    C126   H15       1.09045      .   S
    C139   H21       1.08923      .   S
    C127   C140      1.39100      .   S
    C127   H16       1.09027      .   S
    C140   H22       1.08955      .   S
    H98    N276      1.02629      .   S
    H99    N277      1.02573      .   S
    C161   C169      1.39029      .   S
    C161   H40       1.09103      .   S
    C162   C170      1.39135      .   S
    C162   H41       1.09198      .   S
    C169   H46       1.08928      .   S
    C170   H47       1.08957      .   S
    O289   C214      1.27668      .   S
    O288   C213      1.27519      .   S
    C238   O301      1.28695      .   S
    C238   C234      1.49990      .   S
    C237   O300      1.28636  1_655   S
    C237   C233      1.50067      .   S
    O291   C214      1.28305      .   S
    O291   Cd0       2.31730  1_554   S
    O290   C213      1.28327      .   S
    O290   Cd32      2.31592  1_554   S
    C241   C233      1.39644      .   S
    C241   C235      1.41061  1_545   S
    C242   C234      1.39624      .   S
    C242   C236      1.41039  1_545   S
    N276   C235      1.38911      .   S
    N276   H104      1.01954      .   S
    N277   C236      1.38778      .   S
    N277   H105      1.01923      .   S
    C214   C216      1.49763      .   S
    C213   C215      1.49666      .   S
    C233   C243      1.39705      .   S
    C234   C244      1.39643      .   S
    C235   C239      1.41278      .   S
    C236   C240      1.41265      .   S
    H83    C224      1.09168      .   S
    H82    C223      1.14357      .   S
    C216   C224      1.40427      .   S
    C216   C228      1.39987      .   S
    C215   C223      1.44235      .   S
    C215   C227      1.39902      .   S
    C243   H96       1.08384  1_655   S
    C243   C231      1.40009      .   S
    C244   H97       1.08388      .   S
    C244   C232      1.40006      .   S
    C239   C231      1.40396  1_565   S
    C239   H92       1.09134      .   S
    C240   C232      1.40352  1_565   S
    C240   H93       1.09125      .   S
    H87    C228      1.08392      .   S
    H86    C227      1.08393      .   S
    C224   C220      1.41207      .   S
    C223   C219      1.41516      .   S
    C228   C218      1.39700      .   S
    C227   C217      1.39657      .   S
    C231   C229      1.49736      .   S
    C232   C230      1.49596      .   S
    H91    N275      1.02008      .   S
    H90    N274      1.01994      .   S
    C220   N275      1.38996      .   S
    C220   C226      1.41036      .   S
    C219   N274      1.47270      .   S
    C219   C225      1.46057      .   S
    C218   C226      1.39576      .   S
    C218   C222      1.50058      .   S
    C217   C225      1.39572      .   S
    C217   C221      1.49958      .   S
    C229   O298      1.28174      .   S
    C229   O296      1.27812      .   S
    C230   O299      1.28134      .   S
    C230   O297      1.27886      .   S
    H30    C150      1.08892      .   S
    N275   H89       1.02688      .   S
    H29    C149      1.08909      .   S
    N274   H88       1.02690      .   S
    H24    C142      1.09104      .   S
    O293   C222      1.28497      .   S
    O293   Cd4       2.31049      .   S
    O292   C221      1.28454      .   S
    O292   Cd3       2.31240      .   S
    H23    C141      1.09095      .   S
    C226   H85       1.08940      .   S
    O299   Cd6       2.33153      .   S
    C225   H84       1.08939      .   S
    O298   Cd5       2.32756      .   S
    H71    C200      1.08841      .   S
    H70    C199      1.08841      .   S
    H65    C192      1.09016      .   S
    H59    C184      1.09030      .   S
    H58    C183      1.08923      .   S
    H64    C191      1.09014      .   S
    H61    C186      1.09179      .   S
    C222   O295      1.27193      .   S
    C221   O294      1.27168      .   S
    H60    C185      1.09156      .   S
    O296   Cd3       2.40186  1_645   S
    O297   Cd4       2.41126  1_545   S
    C150   C142      1.39040      .   S
    C150   C148      1.40477      .   S
    C149   C141      1.39045      .   S
    C149   C147      1.40462      .   S
    C142   N261      1.34544      .   S
    C141   N136      1.34557      .   S
    H35    C154      1.08913      .   S
    H37    C156      1.09312      .   S
    C200   C192      1.38905      .   S
    C200   C198      1.40402      .   S
    H34    C153      1.08915      .   S
    H36    C155      1.09166      .   S
    C192   N271      1.34577      .   S
    C199   C191      1.38904      .   S
    C199   C197      1.40400      .   S
    C191   N270      1.34607      .   S
    C184   C186      1.38986      .   S
    C184   C188      1.40481      .   S
    C183   C185      1.38975      .   S
    C183   C187      1.40489      .   S
    C186   N269      1.34551      .   S
    C185   N268      1.34603      .   S
    C154   C156      1.39117      .   S
    C154   C158      1.40431      .   S
    C156   N263      1.33898      .   S
    C153   C155      1.39083      .   S
    C153   C157      1.40433      .   S
    C155   N262      1.34843      .   S
    C198   C148      1.47963      .   S
    C198   C194      1.40435      .   S
    C148   C144      1.40472      .   S
    N271   Cd3       2.37760  1_655   S
    N271   C196      1.34758      .   S
    C197   C147      1.47970      .   S
    C197   C193      1.40426      .   S
    N261   Cd4       2.38080      .   S
    N261   C146      1.34593      .   S
    C147   C143      1.40383      .   S
    Cd4    N270      2.37511      .   S
    Cd4    O307      2.33079      .   S
    Cd3    N136      2.38571      .   S
    Cd3    O306      2.32019      .   S
    N270   C195      1.34767      .   S
    N136   C145      1.34598      .   S
    N263   Cd6       2.38105      .   S
    N263   C152      1.35365      .   S
    N269   Cd5       2.38277      .   S
    N269   C182      1.34489      .   S
    N268   Cd6       2.37880      .   S
    N268   C181      1.34557      .   S
    Cd6    O287      2.53438      .   S
    Cd6    O305      2.40133  1_545   S
    Cd6    O285      2.32303      .   S
    Cd5    N262      2.37313  1_655   S
    Cd5    O286      2.53781      .   S
    Cd5    O304      2.40241  1_645   S
    Cd5    O284      2.32467      .   S
    N262   C151      1.34573      .   S
    C188   C158      1.48017      .   S
    C188   C190      1.40475      .   S
    C158   C160      1.40435      .   S
    C187   C157      1.47961      .   S
    C187   C189      1.40442      .   S
    C157   C159      1.40412      .   S
    O287   C102      1.27277      .   S
    O286   C101      1.27297      .   S
    C196   C194      1.39104      .   S
    C196   H69       1.09231      .   S
    C194   H67       1.08914      .   S
    C195   C193      1.39116      .   S
    C195   H68       1.09218      .   S
    C193   H66       1.08909      .   S
    C146   C144      1.38959      .   S
    C146   H28       1.09165      .   S
    C144   H26       1.08936      .   S
    C145   C143      1.38994      .   S
    C145   H27       1.09158      .   S
    C143   H25       1.09016      .   S
    H74    C209      1.08954      .   S
    H75    C210      1.09013      .   S
    C152   C160      1.38924      .   S
    C152   H33       1.08983      .   S
    C151   C159      1.38892      .   S
    C151   H31       1.09005      .   S
    C160   H39       1.08836      .   S
    C159   H38       1.08830      .   S
    C182   C190      1.39067      .   S
    C182   H57       1.09183      .   S
    C181   C189      1.39014      .   S
    C181   H56       1.09065      .   S
    H78    N272      1.02681      .   S
    H79    N273      1.02685      .   S
    C190   H63       1.08875      .   S
    C189   H62       1.08890      .   S
    O305   C246      1.27816      .   S
    O304   C245      1.27913      .   S
    C102   O285      1.28424      .   S
    C102   C206      1.49965      .   S
    C101   O284      1.28414      .   S
    C101   C205      1.49996      .   S
    O306   C245      1.28205      .   S
    O307   C246      1.28232      .   S
    C209   C205      1.39588      .   S
    C209   C207      1.41046      .   S
    C210   C206      1.39611      .   S
    C210   C100      1.41064      .   S
    N272   C207      1.39002      .   S
    N272   H80       1.01999      .   S
    N273   C100      1.39084      .   S
    N273   H81       1.01999      .   S
    C246   C248      1.49623      .   S
    C245   C247      1.49642      .   S
    C206   C212      1.39623      .   S
    C205   C211      1.39638      .   S
    C207   C103      1.41242      .   S
    C100   C208      1.41219      .   S
    H107   C256      1.09168      .   S
    H106   C255      1.09120      .   S
    C248   C256      1.40422  1_565   S
    C248   C260      1.38965      .   S
    C247   C255      1.40375  1_565   S
    C247   C259      1.39955      .   S
    C212   H77       1.08380      .   S
    C212   C204      1.39883      .   S
    C211   H76       1.08342      .   S
    C211   C203      1.39922      .   S
    C103   C203      1.40419      .   S
    C103   H72       1.09167      .   S
    C208   C204      1.40417      .   S
    C208   H73       1.09162      .   S
    C256   C252      1.41247      .   S
    H110   C259      1.08328      .   S
    H111   C260      1.07864      .   S
    C255   C251      1.41370      .   S
    C260   C250      1.41199      .   S
    C259   C249      1.39833      .   S
    C203   C201      1.49718      .   S
    C204   C202      1.49642      .   S
    C252   N279      1.38816      .   S
    C252   C258      1.41028  1_545   S
    H115   N279      1.01950      .   S
    H114   N278      1.01830      .   S
    C251   N278      1.38375      .   S
    C251   C257      1.40949  1_545   S
    C250   C258      1.39555      .   S
    C250   C254      1.49781      .   S
    C249   C257      1.39469      .   S
    C249   C253      1.49970      .   S
    N279   H113      1.02624      .   S
    H54    C179      1.08936      .   S
    H55    C180      1.08969      .   S
    C202   O283      1.28295      .   S
    C202   O281      1.27639      .   S
    C201   O282      1.28344  1_655   S
    C201   O280      1.27564      .   S
    N278   H112      1.02537      .   S
    H49    C172      1.09061      .   S
    H48    C171      1.09078      .   S
    O309   C254      1.28598      .   S
    O309   Cd0       2.31642      .   S
    O308   C253      1.28669      .   S
    O308   Cd32      2.31124      .   S
    C258   H109      1.08862      .   S
    C257   H108      1.08933      .   S
    H14    C125      1.08946      .   S
    H13    C124      1.08924      .   S
    H8     C117      1.09030      .   S
    H7     C116      1.09003      .   S
    H43    C164      1.08951      .   S
    H42    C163      1.08918      .   S
    H45    C166      1.09025      .   S
    C254   O311      1.27202      .   S
    H44    C165      1.09097      .   S
    C253   O310      1.27126      .   S
    O280   Cd32      2.41341  1_655   S
    O281   Cd0       2.40385      .   S
    C179   C171      1.39047      .   S
    C179   C177      1.40417      .   S
    C180   C172      1.39069      .   S
    C180   C178      1.40373      .   S
    C172   N267      1.34678      .   S
    C171   N266      1.34609      .   S
    H18    C129      1.08931      .   S
    H20    C131      1.09119      .   S
    C124   C116      1.38983      .   S
    C124   C122      1.40375      .   S
    C125   C117      1.38983      .   S
    C125   C123      1.40342      .   S
    C116   N132      1.34570      .   S
    C117   N133      1.34660      .   S
    H17    C128      1.08921      .   S
    H19    C130      1.09144      .   S
    C164   C166      1.38884      .   S
    C163   C165      1.38978      .   S
    C129   C131      1.38971      .   S
    C128   C130      1.39057      .   S
    O311   Cd0       2.54591      .   S
    O310   Cd32      2.54433      .   S
    C122   C177      1.47880      .   S
    N132   Cd0       2.38274      .   S
    C123   C178      1.47832      .   S
    N133   Cd32      2.38106  1_655   S
    Cd0    N267      2.40066      .   S
    Cd32   N266      2.38648      .   S
