# CIF file generated by openbabel 2.4.90, see http://openbabel.sf.net
data_I
_chemical_name_common ''
_cell_length_a 23.716
_cell_length_b 14.398
_cell_length_c 17.462
_cell_angle_alpha 89.922
_cell_angle_beta 93.421
_cell_angle_gamma 87.6
_space_group_name_H-M_alt 'P 1'
_space_group_name_Hall 'P 1'
loop_
    _symmetry_equiv_pos_as_xyz
    x,y,z
loop_
    _atom_site_label
    _atom_site_type_symbol
    _atom_site_fract_x
    _atom_site_fract_y
    _atom_site_fract_z
    _atom_site_occupancy
    Cd0     Cd   0.50113   0.63620   0.98445   1.000
    Cd1     Cd   0.00504   0.36007   0.01662   1.000
    Cd2     Cd   0.50527   0.35960   0.01620   1.000
    Cd3     Cd   0.00286   0.86060   0.48441   1.000
    Cd4     Cd   0.50293   0.86128   0.48404   1.000
    Cd5     Cd   0.99834   0.13649   0.51627   1.000
    Cd6     Cd   0.49804   0.13726   0.51611   1.000
    Cd7     Cd   0.00159   0.63662   0.98508   1.000
