# CIF file generated by openbabel 2.4.90, see http://openbabel.sf.net
data_I
_chemical_name_common ''
_cell_length_a 23.716
_cell_length_b 14.398
_cell_length_c 17.462
_cell_angle_alpha 89.922
_cell_angle_beta 93.421
_cell_angle_gamma 87.6
_space_group_name_H-M_alt 'P 1'
_space_group_name_Hall 'P 1'
loop_
    _symmetry_equiv_pos_as_xyz
    x,y,z
loop_
    _atom_site_label
    _atom_site_type_symbol
    _atom_site_fract_x
    _atom_site_fract_y
    _atom_site_fract_z
    _atom_site_occupancy
    N0      N    0.25496   0.36353   0.01916   1.000
    N1      N    0.75278   0.86057   0.48166   1.000
    N2      N    0.75518   0.37036   0.01996   1.000
    N3      N    0.25115   0.62994   0.98030   1.000
    N4      N    0.49167   0.45887   0.69824   1.000
    N5      N    0.99021   0.45850   0.69808   1.000
    N6      N    0.00974   0.53802   0.30343   1.000
    N7      N    0.51085   0.53851   0.30283   1.000
    N8      N    0.99116   0.03924   0.19783   1.000
    N9      N    0.49141   0.03985   0.19830   1.000
    N10     N    0.74828   0.13461   0.51665   1.000
    N11     N    0.25300   0.86227   0.48410   1.000
    N12     N    0.24814   0.13801   0.51774   1.000
    N13     N    0.75171   0.63247   0.98357   1.000
    N14     N    0.49296   0.95773   0.79993   1.000
    N15     N    0.01290   0.95675   0.80248   1.000
    Zr16    Zr   0.00159   0.63662   0.98508   1.000
    O17     O    0.00411   0.61381   0.08120   1.000
    O18     O    0.07655   0.63288   0.98395   1.000
    O19     O    0.99792   0.57459   0.90392   1.000
    O20     O    0.92656   0.63560   0.98442   1.000
    Zr21    Zr   0.00286   0.86060   0.48441   1.000
    O22     O    0.00595   0.88255   0.58048   1.000
    O23     O    0.00515   0.76924   0.42523   1.000
    O24     O    0.99865   0.92282   0.40341   1.000
    O25     O    0.07795   0.86183   0.48448   1.000
    O26     O    0.92780   0.86061   0.48354   1.000
    Zr27    Zr   0.50113   0.63620   0.98445   1.000
    O28     O    0.50419   0.61373   0.08058   1.000
    O29     O    0.49814   0.57436   0.90360   1.000
    O30     O    0.42606   0.63453   0.98264   1.000
    O31     O    0.57644   0.63387   0.98442   1.000
    Zr32    Zr   0.00504   0.36007   0.01662   1.000
    O33     O    0.00626   0.42199   0.09776   1.000
    O34     O    0.93001   0.36427   0.01762   1.000
    O35     O    0.00097   0.38281   0.92040   1.000
    O36     O    0.00191   0.26897   0.07583   1.000
    O37     O    0.08003   0.36145   0.01742   1.000
    Zr38    Zr   0.49804   0.13726   0.51611   1.000
    O39     O    0.57316   0.13619   0.51611   1.000
    O40     O    0.49719   0.07470   0.59626   1.000
    O41     O    0.42304   0.13704   0.51651   1.000
    O42     O    0.49586   0.11509   0.42003   1.000
    Zr43    Zr   0.50527   0.35960   0.01620   1.000
    O44     O    0.50645   0.42192   0.09721   1.000
    O45     O    0.58029   0.36345   0.01748   1.000
    O46     O    0.50167   0.38257   0.92015   1.000
    O47     O    0.43010   0.36143   0.01712   1.000
    O48     O    0.50285   0.26862   0.07560   1.000
    Zr49    Zr   0.50293   0.86128   0.48404   1.000
    O50     O    0.49890   0.92369   0.40339   1.000
    O51     O    0.42793   0.86167   0.48416   1.000
    O52     O    0.50532   0.76986   0.42481   1.000
    O53     O    0.50146   0.88330   0.57964   1.000
    O54     O    0.57791   0.86180   0.48338   1.000
    Zr55    Zr   0.99834   0.13649   0.51627   1.000
    O56     O    0.92329   0.13524   0.51623   1.000
    O57     O    0.00313   0.07393   0.59710   1.000
    O58     O    0.07330   0.13685   0.51671   1.000
    O59     O    0.99611   0.11417   0.42005   1.000
    O60     O    0.49863   0.73293   0.93065   1.000
    O61     O    0.49621   0.23397   0.56923   1.000
    O62     O    0.99573   0.23332   0.56929   1.000
    O63     O    0.00498   0.73290   0.93188   1.000
loop_
    _geom_bond_atom_site_label_1
    _geom_bond_atom_site_label_2
    _geom_bond_distance
    _geom_bond_site_symmetry_2
    _ccdc_geom_bond_type
    Zr16   O17       1.70686  1_556   S
    N6     O17       4.02278      .   S
    Zr16   O18       1.77766      .   S
    N3     O18       4.14362      .   S
    Zr16   O19       1.67597  1_455   S
    N5     O19       3.96357      .   S
    Zr16   O20       1.77946  1_455   S
    N13    O20       4.14798      .   S
    Zr21   O22       1.70537      .   S
    N15    O22       4.01817      .   S
    Zr21   O23       1.67501      .   S
    N6     O23       3.95399      .   S
    Zr21   O24       1.66882  1_455   S
    N8     O24       3.95106  1_545   S
    Zr21   O25       1.78145      .   S
    N11    O25       4.15221      .   S
    Zr21   O26       1.77929  1_455   S
    N1     O26       4.14907      .   S
    Zr27   O28       1.70577  1_556   S
    N7     O28       4.01996      .   S
    Zr27   O29       1.66974      .   S
    N4     O29       3.95212      .   S
    Zr27   O30       1.77994      .   S
    N3     O30       4.14907      .   S
    Zr27   O31       1.78507      .   S
    N13    O31       4.15678      .   S
    Zr32   O33       1.67448      .   S
    N6     O33       3.96097      .   S
    Zr32   O34       1.77911  1_455   S
    N2     O34       4.14616      .   S
    Zr32   O35       1.70762  1_554   S
    N5     O35       4.02126  1_655   S
    Zr32   O36       1.67586      .   S
    N8     O36       3.95742  1_655   S
    Zr32   O37       1.77863      .   S
    N0     O37       4.14818      .   S
    Zr38   O39       1.78076      .   S
    N10    O39       4.15189      .   S
    Zr38   O40       1.66488      .   S
    N14    O40       3.94167  1_565   S
    Zr38   O41       1.77928      .   S
    N12    O41       4.14871      .   S
    Zr38   O42       1.70643      .   S
    N9     O42       4.01852      .   S
    Zr43   O44       1.67555      .   S
    N7     O44       3.96328      .   S
    Zr43   O45       1.78115      .   S
    N2     O45       4.15069      .   S
    Zr43   O46       1.70551  1_554   S
    N4     O46       4.01688      .   S
    Zr43   O47       1.78274      .   S
    N0     O47       4.15493      .   S
    Zr43   O48       1.67472      .   S
    N9     O48       3.95457      .   S
    Zr49   O50       1.66527      .   S
    N9     O50       3.94177  1_545   S
    Zr49   O51       1.77858      .   S
    N11    O51       4.14820      .   S
    Zr49   O52       1.67642      .   S
    N7     O52       3.95790      .   S
    Zr49   O53       1.70180      .   S
    N14    O53       4.00897      .   S
    Zr49   O54       1.77936      .   S
    N1     O54       4.14835      .   S
    Zr55   O56       1.78067      .   S
    N10    O56       4.15125      .   S
    Zr55   O57       1.66892  1_655   S
    N15    O57       3.95146  1_565   S
    Zr55   O58       1.77761  1_655   S
    N12    O58       4.14627      .   S
    Zr55   O59       1.70921      .   S
    N8     O59       4.02524      .   S
    Zr27   O60       1.67586      .   S
    N14    O60       3.95104      .   S
    Zr38   O61       1.67456      .   S
    N4     O61       3.94863      .   S
    Zr55   O62       1.67563      .   S
    N5     O62       3.95043      .   S
    Zr16   O63       1.67517      .   S
    N15    O63       3.95086      .   S
