# CIF file generated by openbabel 2.4.90, see http://openbabel.sf.net
data_I
_chemical_name_common ''
_cell_length_a 23.716
_cell_length_b 14.398
_cell_length_c 17.462
_cell_angle_alpha 89.922
_cell_angle_beta 93.421
_cell_angle_gamma 87.6
_space_group_name_H-M_alt 'P 1'
_space_group_name_Hall 'P 1'
loop_
    _symmetry_equiv_pos_as_xyz
    x,y,z
loop_
    _atom_site_label
    _atom_site_type_symbol
    _atom_site_fract_x
    _atom_site_fract_y
    _atom_site_fract_z
    _atom_site_occupancy
    N0      N    0.25496   0.36353   0.01916   1.000
    N1      N    0.75278   0.86057   0.48166   1.000
    N2      N    0.75518   0.37036   0.01996   1.000
    N3      N    0.25115   0.62994   0.98030   1.000
    N4      N    0.49167   0.45887   0.69824   1.000
    N5      N    0.99021   0.45850   0.69808   1.000
    N6      N    0.00974   0.53802   0.30343   1.000
    N7      N    0.51085   0.53851   0.30283   1.000
    N8      N    0.99116   0.03924   0.19783   1.000
    N9      N    0.49141   0.03985   0.19830   1.000
    N10     N    0.74828   0.13461   0.51665   1.000
    N11     N    0.25300   0.86227   0.48410   1.000
    N12     N    0.24814   0.13801   0.51774   1.000
    N13     N    0.75171   0.63247   0.98357   1.000
    N14     N    0.49296   0.95773   0.79993   1.000
    N15     N    0.01290   0.95675   0.80248   1.000
    Zr16    Zr   0.00159   0.63662   0.98508   1.000
    O17     O    0.00411   0.61381   0.08120   1.000
    O18     O    0.07655   0.63288   0.98395   1.000
    O19     O    0.00513   0.73862   0.93836   1.000
    O20     O    0.99792   0.57459   0.90392   1.000
    O21     O    0.00483   0.72719   0.92540   1.000
    O22     O    0.92656   0.63560   0.98442   1.000
    Zr23    Zr   0.00286   0.86060   0.48441   1.000
    O24     O    0.00595   0.88255   0.58048   1.000
    O25     O    0.00515   0.76924   0.42523   1.000
    O26     O    0.99865   0.92282   0.40341   1.000
    O27     O    0.07795   0.86183   0.48448   1.000
    O28     O    0.92780   0.86061   0.48354   1.000
    Zr29    Zr   0.50113   0.63620   0.98445   1.000
    O30     O    0.50419   0.61373   0.08058   1.000
    O31     O    0.49814   0.57436   0.90360   1.000
    O32     O    0.49756   0.73860   0.93695   1.000
    O33     O    0.42606   0.63453   0.98264   1.000
    O34     O    0.49971   0.72726   0.92436   1.000
    O35     O    0.57644   0.63387   0.98442   1.000
    Zr36    Zr   0.00504   0.36007   0.01662   1.000
    O37     O    0.00626   0.42199   0.09776   1.000
    O38     O    0.93001   0.36427   0.01762   1.000
    O39     O    0.00097   0.38281   0.92040   1.000
    O40     O    0.00191   0.26897   0.07583   1.000
    O41     O    0.08003   0.36145   0.01742   1.000
    Zr42    Zr   0.49804   0.13726   0.51611   1.000
    O43     O    0.57316   0.13619   0.51611   1.000
    O44     O    0.49719   0.07470   0.59626   1.000
    O45     O    0.49651   0.22829   0.57577   1.000
    O46     O    0.49591   0.23964   0.56269   1.000
    O47     O    0.42304   0.13704   0.51651   1.000
    O48     O    0.49586   0.11509   0.42003   1.000
    Zr49    Zr   0.50527   0.35960   0.01620   1.000
    O50     O    0.50645   0.42192   0.09721   1.000
    O51     O    0.58029   0.36345   0.01748   1.000
    O52     O    0.50167   0.38257   0.92015   1.000
    O53     O    0.43010   0.36143   0.01712   1.000
    O54     O    0.50285   0.26862   0.07560   1.000
    Zr55    Zr   0.50293   0.86128   0.48404   1.000
    O56     O    0.49890   0.92369   0.40339   1.000
    O57     O    0.42793   0.86167   0.48416   1.000
    O58     O    0.50532   0.76986   0.42481   1.000
    O59     O    0.50146   0.88330   0.57964   1.000
    O60     O    0.57791   0.86180   0.48338   1.000
    Zr61    Zr   0.99834   0.13649   0.51627   1.000
    O62     O    0.92329   0.13524   0.51623   1.000
    O63     O    0.00313   0.07393   0.59710   1.000
    O64     O    0.99589   0.22763   0.57582   1.000
    O65     O    0.99557   0.23900   0.56277   1.000
    O66     O    0.07330   0.13685   0.51671   1.000
    O67     O    0.99611   0.11417   0.42005   1.000
loop_
    _geom_bond_atom_site_label_1
    _geom_bond_atom_site_label_2
    _geom_bond_distance
    _geom_bond_site_symmetry_2
    _ccdc_geom_bond_type
    Zr16   O17       1.70686  1_556   S
    N6     O17       4.02278      .   S
    Zr16   O18       1.77766      .   S
    N3     O18       4.14362      .   S
    Zr16   O19       1.68664      .   S
    N15    O19       3.95061      .   S
    Zr16   O20       1.67597  1_455   S
    N5     O20       3.96357      .   S
    Zr16   O21       1.67535      .   S
    N15    O21       3.95606      .   S
    Zr16   O22       1.77946  1_455   S
    N13    O22       4.14798      .   S
    Zr23   O24       1.70537      .   S
    N15    O24       4.01817      .   S
    Zr23   O25       1.67501      .   S
    N6     O25       3.95399      .   S
    Zr23   O26       1.66882  1_455   S
    N8     O26       3.95106  1_545   S
    Zr23   O27       1.78145      .   S
    N11    O27       4.15221      .   S
    Zr23   O28       1.77929  1_455   S
    N1     O28       4.14907      .   S
    Zr29   O30       1.70577  1_556   S
    N7     O30       4.01996      .   S
    Zr29   O31       1.66974      .   S
    N4     O31       3.95212      .   S
    Zr29   O32       1.68721      .   S
    N14    O32       3.95088      .   S
    Zr29   O33       1.77994      .   S
    N3     O33       4.14907      .   S
    Zr29   O34       1.67616      .   S
    N14    O34       3.95615      .   S
    Zr29   O35       1.78507      .   S
    N13    O35       4.15678      .   S
    Zr36   O37       1.67448      .   S
    N6     O37       3.96097      .   S
    Zr36   O38       1.77911  1_455   S
    N2     O38       4.14616      .   S
    Zr36   O39       1.70762  1_554   S
    N5     O39       4.02126  1_655   S
    Zr36   O40       1.67586      .   S
    N8     O40       3.95742  1_655   S
    Zr36   O41       1.77863      .   S
    N0     O41       4.14818      .   S
    Zr42   O43       1.78076      .   S
    N10    O43       4.15189      .   S
    Zr42   O44       1.66488      .   S
    N14    O44       3.94167  1_565   S
    Zr42   O45       1.67586      .   S
    N4     O45       3.95284      .   S
    Zr42   O46       1.68494      .   S
    N4     O46       3.94937      .   S
    Zr42   O47       1.77928      .   S
    N12    O47       4.14871      .   S
    Zr42   O48       1.70643      .   S
    N9     O48       4.01852      .   S
    Zr49   O50       1.67555      .   S
    N7     O50       3.96328      .   S
    Zr49   O51       1.78115      .   S
    N2     O51       4.15069      .   S
    Zr49   O52       1.70551  1_554   S
    N4     O52       4.01688      .   S
    Zr49   O53       1.78274      .   S
    N0     O53       4.15493      .   S
    Zr49   O54       1.67472      .   S
    N9     O54       3.95457      .   S
    Zr55   O56       1.66527      .   S
    N9     O56       3.94177  1_545   S
    Zr55   O57       1.77858      .   S
    N11    O57       4.14820      .   S
    Zr55   O58       1.67642      .   S
    N7     O58       3.95790      .   S
    Zr55   O59       1.70180      .   S
    N14    O59       4.00897      .   S
    Zr55   O60       1.77936      .   S
    N1     O60       4.14835      .   S
    Zr61   O62       1.78067      .   S
    N10    O62       4.15125      .   S
    Zr61   O63       1.66892  1_655   S
    N15    O63       3.95146  1_565   S
    Zr61   O64       1.67669      .   S
    N5     O64       3.95490      .   S
    Zr61   O65       1.68624      .   S
    N5     O65       3.95091      .   S
    Zr61   O66       1.77761  1_655   S
    N12    O66       4.14627      .   S
    Zr61   O67       1.70921      .   S
    N8     O67       4.02524      .   S
