# CIF file generated by openbabel 2.4.90, see http://openbabel.sf.net
data_I
_chemical_name_common ''
_cell_length_a 23.716
_cell_length_b 14.398
_cell_length_c 17.462
_cell_angle_alpha 89.922
_cell_angle_beta 93.421
_cell_angle_gamma 87.6
_space_group_name_H-M_alt 'P 1'
_space_group_name_Hall 'P 1'
loop_
    _symmetry_equiv_pos_as_xyz
    x,y,z
loop_
    _atom_site_label
    _atom_site_type_symbol
    _atom_site_fract_x
    _atom_site_fract_y
    _atom_site_fract_z
    _atom_site_occupancy
    Zr0     Zr   0.00159   0.63662   0.98508   1.000
    Zr1     Zr   0.50113   0.63620   0.98445   1.000
    Zr2     Zr   0.00504   0.36007   0.01662   1.000
    Zr3     Zr   0.50527   0.35960   0.01620   1.000
    Zr4     Zr   0.00286   0.86060   0.48441   1.000
    Zr5     Zr   0.50293   0.86128   0.48404   1.000
    Zr6     Zr   0.99834   0.13649   0.51627   1.000
    Zr7     Zr   0.49804   0.13726   0.51611   1.000
    N8      N    0.25496   0.36353   0.01916   1.000
    O9      O    0.15502   0.36283   0.01822   1.000
    O10     O    0.35494   0.36325   0.01803   1.000
    N11     N    0.75278   0.86057   0.48166   1.000
    O12     O    0.65289   0.86231   0.48271   1.000
    O13     O    0.85274   0.86063   0.48267   1.000
    N14     N    0.75518   0.37036   0.01996   1.000
    O15     O    0.65531   0.36729   0.01877   1.000
    O16     O    0.85497   0.36846   0.01861   1.000
    N17     N    0.25115   0.62994   0.98030   1.000
    O18     O    0.15151   0.62914   0.98282   1.000
    O19     O    0.35099   0.63286   0.98084   1.000
    N20     N    0.49167   0.45887   0.69824   1.000
    O21     O    0.49497   0.31932   0.63542   1.000
    O22     O    0.49378   0.34203   0.60927   1.000
    O23     O    0.49515   0.51252   0.82274   1.000
    O24     O    0.49806   0.40554   0.82410   1.000
    N25     N    0.99021   0.45850   0.69808   1.000
    O26     O    0.99280   0.34151   0.60926   1.000
    O27     O    0.99424   0.51256   0.82276   1.000
    O28     O    0.99690   0.40554   0.82418   1.000
    O29     O    0.99343   0.31877   0.63537   1.000
    N30     N    0.00974   0.53802   0.30343   1.000
    O31     O    0.00747   0.48391   0.17890   1.000
    O32     O    0.00663   0.59101   0.17732   1.000
    O33     O    0.00744   0.67788   0.36604   1.000
    N34     N    0.51085   0.53851   0.30283   1.000
    O35     O    0.50763   0.48423   0.17821   1.000
    O36     O    0.50726   0.59125   0.17671   1.000
    O37     O    0.50771   0.67843   0.36557   1.000
    N38     N    0.99116   0.03924   0.19783   1.000
    O39     O    0.99444   0.98503   0.32242   1.000
    O40     O    0.99388   0.09184   0.32383   1.000
    O41     O    0.99878   0.17788   0.13505   1.000
    N42     N    0.49141   0.03985   0.19830   1.000
    O43     O    0.49487   0.98610   0.32274   1.000
    O44     O    0.49367   0.09291   0.32395   1.000
    O45     O    0.50043   0.17764   0.13499   1.000
    N46     N    0.74828   0.13461   0.51665   1.000
    O47     O    0.64827   0.13511   0.51610   1.000
    O48     O    0.84824   0.13399   0.51619   1.000
    N49     N    0.25300   0.86227   0.48410   1.000
    O50     O    0.15303   0.86307   0.48455   1.000
    O51     O    0.35293   0.86206   0.48428   1.000
    N52     N    0.24814   0.13801   0.51774   1.000
    O53     O    0.34804   0.13681   0.51691   1.000
    O54     O    0.14826   0.13720   0.51716   1.000
    N55     N    0.75171   0.63247   0.98357   1.000
    O56     O    0.65176   0.63154   0.98440   1.000
    O57     O    0.85153   0.63458   0.98375   1.000
    N58     N    0.49296   0.95773   0.79993   1.000
    O59     O    0.49633   0.01214   0.67640   1.000
    O60     O    0.49999   0.90532   0.67524   1.000
    O61     O    0.49829   0.81832   0.86426   1.000
    O62     O    0.49399   0.84099   0.88944   1.000
    N63     N    0.01290   0.95675   0.80248   1.000
    O64     O    0.00791   0.01136   0.67792   1.000
    O65     O    0.00904   0.90450   0.67655   1.000
    O66     O    0.00807   0.81776   0.86572   1.000
    O67     O    0.00867   0.84062   0.89163   1.000
loop_
    _geom_bond_atom_site_label_1
    _geom_bond_atom_site_label_2
    _geom_bond_distance
    _geom_bond_site_symmetry_2
    _ccdc_geom_bond_type
    N8     O9        2.36957      .   S
    Zr2    O9        3.55727      .   S
    N8     O10       2.37227      .   S
    Zr3    O10       3.56548      .   S
    N11    O12       2.36910      .   S
    Zr5    O12       3.55873      .   S
    N11    O13       2.36978      .   S
    Zr4    O13       3.55858  1_455   S
    N14    O15       2.36962      .   S
    Zr3    O15       3.56230      .   S
    N14    O16       2.36730      .   S
    Zr2    O16       3.55822  1_455   S
    N17    O18       2.36661      .   S
    Zr0    O18       3.55531      .   S
    N17    O19       2.36924      .   S
    Zr1    O19       3.55988      .   S
    N20    O21       2.29115      .   S
    Zr7    O21       3.35171      .   S
    N20    O22       2.29250      .   S
    Zr7    O22       3.36988      .   S
    N20    O23       2.30615      .   S
    Zr1    O23       3.33948      .   S
    N20    O24       2.32133      .   S
    Zr3    O24       3.41101  1_554   S
    N25    O26       2.29268      .   S
    Zr6    O26       3.37247      .   S
    N25    O27       2.31104      .   S
    Zr0    O27       3.35194  1_455   S
    N25    O28       2.32349      .   S
    Zr2    O28       3.41524  1_454   S
    N25    O29       2.29244      .   S
    Zr6    O29       3.35337      .   S
    N30    O31       2.30937      .   S
    Zr2    O31       3.34896      .   S
    N30    O32       2.32566      .   S
    Zr0    O32       3.41373  1_556   S
    N30    O33       2.29281      .   S
    Zr4    O33       3.35002      .   S
    N34    O35       2.31119      .   S
    Zr3    O35       3.35110      .   S
    N34    O36       2.32412      .   S
    Zr1    O36       3.41154  1_556   S
    N34    O37       2.29509      .   S
    Zr5    O37       3.35284      .   S
    N38    O39       2.30609  1_545   S
    Zr4    O39       3.33764  1_455   S
    N38    O40       2.32602      .   S
    Zr6    O40       3.41842      .   S
    N38    O41       2.29510      .   S
    Zr2    O41       3.35173  1_455   S
    N42    O43       2.30145  1_545   S
    Zr5    O43       3.33053      .   S
    N42    O44       2.32268      .   S
    Zr7    O44       3.41286      .   S
    N42    O45       2.29375      .   S
    Zr3    O45       3.34943      .   S
    N46    O47       2.37116      .   S
    Zr7    O47       3.56151      .   S
    N46    O48       2.37068      .   S
    Zr6    O48       3.56133      .   S
    N49    O50       2.37088      .   S
    Zr4    O50       3.56290      .   S
    N49    O51       2.36963      .   S
    Zr5    O51       3.55715      .   S
    N52    O53       2.36948      .   S
    Zr7    O53       3.55856      .   S
    N52    O54       2.36867      .   S
    Zr6    O54       3.55522  1_655   S
    N55    O56       2.37203      .   S
    Zr1    O56       3.57014      .   S
    N55    O57       2.36855      .   S
    Zr0    O57       3.55891  1_455   S
    N58    O59       2.30102  1_565   S
    Zr7    O59       3.32976      .   S
    N58    O60       2.31841      .   S
    Zr5    O60       3.40360      .   S
    N58    O61       2.29395      .   S
    Zr1    O61       3.35232      .   S
    N58    O62       2.29196      .   S
    Zr1    O62       3.37441      .   S
    N63    O64       2.30646  1_565   S
    Zr6    O64       3.33784  1_655   S
    N63    O65       2.32288      .   S
    Zr4    O65       3.41075      .   S
    N63    O66       2.29459      .   S
    Zr0    O66       3.35071      .   S
    N63    O67       2.29235      .   S
    Zr0    O67       3.37327      .   S
