# CIF file generated by openbabel 2.4.90, see http://openbabel.sf.net
data_I
_chemical_name_common ''
_cell_length_a 13.234
_cell_length_b 13.275
_cell_length_c 14.003
_cell_angle_alpha 83.848
_cell_angle_beta 78.344
_cell_angle_gamma 88.408
_space_group_name_H-M_alt 'P 1'
_space_group_name_Hall 'P 1'
loop_
    _symmetry_equiv_pos_as_xyz
    x,y,z
loop_
    _atom_site_label
    _atom_site_type_symbol
    _atom_site_fract_x
    _atom_site_fract_y
    _atom_site_fract_z
    _atom_site_occupancy
    Lv0     Lv   0.63250   0.32794   0.77491   1.000
    Lv1     Lv   0.13102   0.82695   0.77815   1.000
    Lv2     Lv   0.36750   0.67207   0.22512   1.000
    Lv3     Lv   0.86200   0.67284   0.72387   1.000
    Lv4     Lv   0.86899   0.17342   0.22188   1.000
    Lv5     Lv   0.13800   0.32717   0.27617   1.000
