# CIF file generated by openbabel 2.4.90, see http://openbabel.sf.net
data_I
_chemical_name_common ''
_cell_length_a 13.234
_cell_length_b 13.275
_cell_length_c 14.003
_cell_angle_alpha 83.848
_cell_angle_beta 78.344
_cell_angle_gamma 88.408
_space_group_name_H-M_alt 'P 1'
_space_group_name_Hall 'P 1'
loop_
    _symmetry_equiv_pos_as_xyz
    x,y,z
loop_
    _atom_site_label
    _atom_site_type_symbol
    _atom_site_fract_x
    _atom_site_fract_y
    _atom_site_fract_z
    _atom_site_occupancy
    C0      C    0.06995   0.67292   0.20119   1.000
    C1      C    0.66480   0.67263   0.24828   1.000
    C2      C    0.86975   0.87291   0.20396   1.000
    C3      C    0.86823   0.47309   0.24036   1.000
    C4      C    0.93005   0.32710   0.79885   1.000
    C5      C    0.33520   0.32738   0.75175   1.000
    C6      C    0.13024   0.12710   0.79608   1.000
    C7      C    0.13178   0.52693   0.75967   1.000
