# CIF file generated by openbabel 2.4.90, see http://openbabel.sf.net
data_I
_chemical_name_common ''
_cell_length_a 13.234
_cell_length_b 13.275
_cell_length_c 14.003
_cell_angle_alpha 83.848
_cell_angle_beta 78.344
_cell_angle_gamma 88.408
_space_group_name_H-M_alt 'P 1'
_space_group_name_Hall 'P 1'
loop_
    _symmetry_equiv_pos_as_xyz
    x,y,z
loop_
    _atom_site_label
    _atom_site_type_symbol
    _atom_site_fract_x
    _atom_site_fract_y
    _atom_site_fract_z
    _atom_site_occupancy
    N0      N    0.63250   0.32794   0.77491   1.000
    N1      N    0.13102   0.82695   0.77815   1.000
    N2      N    0.36750   0.67207   0.22512   1.000
    N3      N    0.86200   0.67284   0.72387   1.000
    N4      N    0.86899   0.17342   0.22188   1.000
    N5      N    0.13800   0.32717   0.27617   1.000
    Zr6     Zr   0.13302   0.32722   0.77666   1.000
    O7      O    0.32280   0.32763   0.76896   1.000
    O8      O    0.13136   0.32656   0.94570   1.000
    O9      O    0.13817   0.32782   0.60747   1.000
    O10     O    0.13252   0.51629   0.77165   1.000
    O11     O    0.94279   0.32720   0.78274   1.000
    O12     O    0.13160   0.13790   0.78308   1.000
    Zr13    Zr   0.86800   0.67279   0.22338   1.000
    O14     O    0.05772   0.67281   0.21730   1.000
    O15     O    0.86800   0.48381   0.22838   1.000
    O16     O    0.86915   0.67345   0.05433   1.000
    O17     O    0.86892   0.86220   0.21696   1.000
    O18     O    0.67771   0.67238   0.23107   1.000
    O19     O    0.86234   0.67219   0.39256   1.000
loop_
    _geom_bond_atom_site_label_1
    _geom_bond_atom_site_label_2
    _geom_bond_distance
    _geom_bond_site_symmetry_2
    _ccdc_geom_bond_type
    Zr6    O7        2.49213      .   S
    N0     O7        4.11635      .   S
    Zr6    O8        2.36186      .   S
    N5     O8        4.64694  1_554   S
    Zr6    O9        2.35541      .   S
    N5     O9        4.64066      .   S
    Zr6    O10       2.50321      .   S
    N1     O10       4.13418      .   S
    Zr6    O11       2.50168  1_455   S
    N0     O11       4.12965      .   S
    Zr6    O12       2.50568      .   S
    N1     O12       4.13603  1_565   S
    Zr13   O14       2.49490  1_655   S
    N2     O14       4.12287      .   S
    Zr13   O15       2.50217      .   S
    N4     O15       4.13084      .   S
    Zr13   O16       2.36318      .   S
    N3     O16       4.64844  1_556   S
    Zr13   O17       2.50667      .   S
    N4     O17       4.13935  1_545   S
    Zr13   O18       2.49890      .   S
    N2     O18       4.12312      .   S
    Zr13   O19       2.35424      .   S
    N3     O19       4.63929      .   S
