# CIF file generated by openbabel 2.4.90, see http://openbabel.sf.net
data_I
_chemical_name_common ''
_cell_length_a 11.298
_cell_length_b 24.39
_cell_length_c 22.765
_cell_angle_alpha 99.196
_cell_angle_beta 89.99
_cell_angle_gamma 89.963
_space_group_name_H-M_alt 'P 1'
_space_group_name_Hall 'P 1'
loop_
    _symmetry_equiv_pos_as_xyz
    x,y,z
loop_
    _atom_site_label
    _atom_site_type_symbol
    _atom_site_fract_x
    _atom_site_fract_y
    _atom_site_fract_z
    _atom_site_occupancy
    Lv0     Lv   0.95149   0.29689   0.38972   1.000
    Lv1     Lv   0.29852   0.04650   0.88955   1.000
    Lv2     Lv   0.79849   0.54652   0.88957   1.000
    Lv3     Lv   0.29849   0.54652   0.88957   1.000
    Lv4     Lv   0.95149   0.79696   0.38975   1.000
    Lv5     Lv   0.54847   0.20309   0.61021   1.000
    Lv6     Lv   0.79851   0.04650   0.88955   1.000
    Lv7     Lv   0.70146   0.95353   0.11044   1.000
    Lv8     Lv   0.04847   0.20309   0.61021   1.000
    Lv9     Lv   0.20149   0.45350   0.11043   1.000
    Lv10    Lv   0.20146   0.95353   0.11044   1.000
    Lv11    Lv   0.54846   0.70316   0.61027   1.000
    Lv12    Lv   0.45149   0.79696   0.38975   1.000
    Lv13    Lv   0.45149   0.29689   0.38972   1.000
    Lv14    Lv   0.04846   0.70316   0.61027   1.000
    Lv15    Lv   0.70148   0.45350   0.11043   1.000
