# CIF file generated by openbabel 2.4.90, see http://openbabel.sf.net
data_I
_chemical_name_common ''
_cell_length_a 11.298
_cell_length_b 24.39
_cell_length_c 22.765
_cell_angle_alpha 99.196
_cell_angle_beta 89.99
_cell_angle_gamma 89.963
_space_group_name_H-M_alt 'P 1'
_space_group_name_Hall 'P 1'
loop_
    _symmetry_equiv_pos_as_xyz
    x,y,z
loop_
    _atom_site_label
    _atom_site_type_symbol
    _atom_site_fract_x
    _atom_site_fract_y
    _atom_site_fract_z
    _atom_site_occupancy
    S0      S    0.48452   0.19932   0.60850   1.000
    S1      S    0.48452   0.69937   0.60860   1.000
    S2      S    0.98451   0.19932   0.60850   1.000
    S3      S    0.98451   0.69937   0.60860   1.000
    S4      S    0.23460   0.05041   0.89124   1.000
    S5      S    0.23457   0.55043   0.89126   1.000
    S6      S    0.73460   0.05041   0.89124   1.000
    S7      S    0.73456   0.55043   0.89126   1.000
    S8      S    0.01545   0.30066   0.39139   1.000
    S9      S    0.01545   0.80072   0.39141   1.000
    S10     S    0.51544   0.30066   0.39139   1.000
    S11     S    0.51544   0.80072   0.39141   1.000
    S12     S    0.26541   0.44959   0.10873   1.000
    S13     S    0.26538   0.94961   0.10874   1.000
    S14     S    0.76540   0.44959   0.10873   1.000
    S15     S    0.76537   0.94961   0.10874   1.000
    O16     O    0.11243   0.20686   0.61192   1.000
    O17     O    0.11242   0.70694   0.61194   1.000
    O18     O    0.61242   0.20685   0.61192   1.000
    O19     O    0.61241   0.70694   0.61194   1.000
    O20     O    0.36244   0.04258   0.88785   1.000
    O21     O    0.36241   0.54261   0.88787   1.000
    O22     O    0.86243   0.04258   0.88785   1.000
    O23     O    0.86241   0.54261   0.88787   1.000
    O24     O    0.38754   0.29312   0.38805   1.000
    O25     O    0.38753   0.79320   0.38808   1.000
    O26     O    0.88753   0.29311   0.38805   1.000
    O27     O    0.88753   0.79320   0.38808   1.000
    O28     O    0.13757   0.45742   0.11212   1.000
    O29     O    0.13754   0.95745   0.11214   1.000
    O30     O    0.63756   0.45742   0.11212   1.000
    O31     O    0.63754   0.95745   0.11214   1.000
loop_
    _geom_bond_atom_site_label_1
    _geom_bond_atom_site_label_2
    _geom_bond_distance
    _geom_bond_site_symmetry_2
    _ccdc_geom_bond_type
    S12    O28       1.45720      .   S
    S14    O30       1.45720      .   S
    S13    O29       1.45720      .   S
    S15    O31       1.45720      .   S
    O24    S10       1.45727      .   S
    O26    S8        1.45741  1_655   S
    O25    S11       1.45728      .   S
    O27    S9        1.45743  1_655   S
    S2     O16       1.45749  1_655   S
    S0     O18       1.45734      .   S
    S1     O19       1.45727      .   S
    S3     O17       1.45741  1_655   S
    O20    S4        1.45719      .   S
    O22    S6        1.45719      .   S
    O21    S5        1.45720      .   S
    O23    S7        1.45721      .   S
