# CIF file generated by openbabel 2.4.90, see http://openbabel.sf.net
data_I
_chemical_name_common ''
_cell_length_a 11.298
_cell_length_b 24.39
_cell_length_c 22.765
_cell_angle_alpha 99.196
_cell_angle_beta 89.99
_cell_angle_gamma 89.963
_space_group_name_H-M_alt 'P 1'
_space_group_name_Hall 'P 1'
loop_
    _symmetry_equiv_pos_as_xyz
    x,y,z
loop_
    _atom_site_label
    _atom_site_type_symbol
    _atom_site_fract_x
    _atom_site_fract_y
    _atom_site_fract_z
    _atom_site_occupancy
    H0      H    0.11772   0.10195   0.61978   1.000
    H1      H    0.11774   0.60200   0.61977   1.000
    H2      H    0.61771   0.10195   0.61978   1.000
    H3      H    0.61774   0.60200   0.61977   1.000
    H4      H    0.07036   0.11950   0.40120   1.000
    H5      H    0.07036   0.61954   0.40120   1.000
    H6      H    0.57034   0.11948   0.40120   1.000
    H7      H    0.57035   0.61953   0.40122   1.000
    H8      H    0.26986   0.21357   0.54315   1.000
    H9      H    0.26987   0.71362   0.54316   1.000
    H10     H    0.76984   0.21355   0.54315   1.000
    H11     H    0.76986   0.71362   0.54316   1.000
    H12     H    0.27680   0.17265   0.67399   1.000
    H13     H    0.27682   0.67268   0.67399   1.000
    H14     H    0.77680   0.17265   0.67399   1.000
    H15     H    0.77681   0.67268   0.67399   1.000
    H16     H    0.23380   0.09031   0.72366   1.000
    H17     H    0.23383   0.59033   0.72364   1.000
    H18     H    0.73380   0.09031   0.72366   1.000
    H19     H    0.73382   0.59033   0.72360   1.000
    H20     H    0.07630   0.02224   0.67276   1.000
    H21     H    0.07633   0.52227   0.67273   1.000
    H22     H    0.57630   0.02224   0.67276   1.000
    H23     H    0.57632   0.52227   0.67273   1.000
    H24     H    0.11681   0.14173   0.50949   1.000
    H25     H    0.11682   0.64178   0.50951   1.000
    H26     H    0.61679   0.14172   0.50950   1.000
    H27     H    0.61680   0.64177   0.50951   1.000
    H28     H    0.22449   0.19080   0.43430   1.000
    H29     H    0.22449   0.69085   0.43430   1.000
    H30     H    0.72447   0.19079   0.43430   1.000
    H31     H    0.72448   0.69085   0.43432   1.000
    H32     H    0.36788   0.14774   0.88002   1.000
    H33     H    0.36783   0.64776   0.88004   1.000
    H34     H    0.86787   0.14774   0.88000   1.000
    H35     H    0.86783   0.64776   0.88004   1.000
    H36     H    0.32036   0.13049   0.09853   1.000
    H37     H    0.32035   0.63047   0.09855   1.000
    H38     H    0.82036   0.13048   0.09853   1.000
    H39     H    0.82034   0.63047   0.09855   1.000
    H40     H    0.02003   0.03634   0.95672   1.000
    H41     H    0.01997   0.53637   0.95674   1.000
    H42     H    0.52001   0.03635   0.95672   1.000
    H43     H    0.51998   0.53636   0.95674   1.000
    H44     H    0.02706   0.07720   0.82580   1.000
    H45     H    0.02703   0.57721   0.82582   1.000
    H46     H    0.52706   0.07720   0.82580   1.000
    H47     H    0.52702   0.57721   0.82580   1.000
    H48     H    0.48398   0.15959   0.77621   1.000
    H49     H    0.48395   0.65960   0.77621   1.000
    H50     H    0.98397   0.15959   0.77621   1.000
    H51     H    0.98395   0.65960   0.77621   1.000
    H52     H    0.32635   0.22752   0.82713   1.000
    H53     H    0.32632   0.72754   0.82714   1.000
    H54     H    0.82634   0.22753   0.82713   1.000
    H55     H    0.82631   0.72754   0.82714   1.000
    H56     H    0.36684   0.10812   0.99023   1.000
    H57     H    0.36682   0.60811   0.99025   1.000
    H58     H    0.86684   0.10812   0.99023   1.000
    H59     H    0.86681   0.60812   0.99025   1.000
    H60     H    0.47462   0.05926   0.06558   1.000
    H61     H    0.47460   0.55925   0.06560   1.000
    H62     H    0.97462   0.05925   0.06558   1.000
    H63     H    0.97459   0.55926   0.06560   1.000
    H64     H    0.38224   0.39803   0.38021   1.000
    H65     H    0.38227   0.89808   0.38021   1.000
    H66     H    0.88223   0.39803   0.38021   1.000
    H67     H    0.88227   0.89809   0.38021   1.000
    H68     H    0.42963   0.38050   0.59877   1.000
    H69     H    0.42962   0.88054   0.59879   1.000
    H70     H    0.92961   0.38049   0.59878   1.000
    H71     H    0.92961   0.88054   0.59879   1.000
    H72     H    0.23011   0.28643   0.45682   1.000
    H73     H    0.23013   0.78649   0.45684   1.000
    H74     H    0.73009   0.28641   0.45682   1.000
    H75     H    0.73011   0.78648   0.45684   1.000
    H76     H    0.22316   0.32734   0.32599   1.000
    H77     H    0.22318   0.82738   0.32600   1.000
    H78     H    0.72316   0.32734   0.32600   1.000
    H79     H    0.72318   0.82738   0.32600   1.000
    H80     H    0.26615   0.40969   0.27634   1.000
    H81     H    0.26618   0.90972   0.27632   1.000
    H82     H    0.76615   0.40969   0.27634   1.000
    H83     H    0.76618   0.90972   0.27630   1.000
    C84     C    0.80977   0.68010   0.45145   1.000
    H85     H    0.42366   0.47776   0.32724   1.000
    H86     H    0.42369   0.97780   0.32722   1.000
    H87     H    0.92365   0.47776   0.32725   1.000
    H88     H    0.92369   0.97780   0.32722   1.000
    H89     H    0.38317   0.35827   0.49048   1.000
    H90     H    0.38318   0.85832   0.49050   1.000
    H91     H    0.88315   0.35826   0.49048   1.000
    H92     H    0.88316   0.85831   0.49050   1.000
    H93     H    0.27549   0.30920   0.56567   1.000
    H94     H    0.27550   0.80925   0.56569   1.000
    H95     H    0.77548   0.30918   0.56567   1.000
    H96     H    0.77549   0.80924   0.56569   1.000
    H97     H    0.13214   0.35226   0.11994   1.000
    H98     H    0.13209   0.85228   0.11997   1.000
    H99     H    0.63213   0.35226   0.11994   1.000
    H100    H    0.63209   0.85228   0.11990   1.000
    H101    H    0.17962   0.36956   0.90143   1.000
    H102    H    0.17962   0.86954   0.90140   1.000
    H103    H    0.67963   0.36955   0.90143   1.000
    H104    H    0.67960   0.86955   0.90145   1.000
    H105    H    0.48000   0.46366   0.04324   1.000
    H106    H    0.47995   0.96368   0.04326   1.000
    H107    H    0.97999   0.46367   0.04324   1.000
    H108    H    0.97995   0.96368   0.04326   1.000
    H109    H    0.47295   0.42281   0.17416   1.000
    H110    H    0.47291   0.92282   0.17417   1.000
    H111    H    0.97294   0.42281   0.17416   1.000
    H112    H    0.97290   0.92282   0.17417   1.000
    H113    H    0.01602   0.34042   0.22377   1.000
    H114    H    0.01599   0.84043   0.22378   1.000
    H115    H    0.51601   0.34042   0.22377   1.000
    H116    H    0.51598   0.84043   0.22370   1.000
    H117    H    0.17365   0.27248   0.17280   1.000
    H118    H    0.17361   0.77250   0.17286   1.000
    H119    H    0.67364   0.27248   0.17285   1.000
    H120    H    0.67361   0.77250   0.17286   1.000
    H121    H    0.13315   0.39192   0.00973   1.000
    H122    H    0.13313   0.89190   0.00976   1.000
    H123    H    0.63316   0.39191   0.00973   1.000
    H124    H    0.63312   0.89191   0.00976   1.000
    H125    H    0.02538   0.44078   0.93438   1.000
    H126    H    0.02535   0.94077   0.93440   1.000
    H127    H    0.52538   0.44076   0.93438   1.000
    H128    H    0.52534   0.94078   0.93440   1.000
    C129    C    0.44648   0.17960   0.53215   1.000
    C130    C    0.44650   0.67966   0.53216   1.000
    C131    C    0.94648   0.17960   0.53215   1.000
    C132    C    0.94649   0.67966   0.53216   1.000
    C133    C    0.44886   0.14129   0.64335   1.000
    C134    C    0.44888   0.64133   0.64335   1.000
    C135    C    0.94885   0.14129   0.64335   1.000
    C136    C    0.94887   0.64133   0.64335   1.000
    C137    C    0.03321   0.09898   0.64198   1.000
    C138    C    0.03323   0.59902   0.64197   1.000
    C139    C    0.53320   0.09898   0.64198   1.000
    C140    C    0.53323   0.59902   0.64197   1.000
    C141    C    0.00464   0.13978   0.43243   1.000
    C142    C    0.00464   0.63983   0.43244   1.000
    C143    C    0.50463   0.13978   0.43243   1.000
    C144    C    0.50463   0.63983   0.43244   1.000
    C145    C    0.39406   0.15399   0.41127   1.000
    C146    C    0.39406   0.65403   0.41129   1.000
    C147    C    0.89406   0.15399   0.41127   1.000
    C148    C    0.89405   0.65403   0.41129   1.000
    C149    C    0.33510   0.19312   0.51192   1.000
    C150    C    0.33511   0.69317   0.51194   1.000
    C151    C    0.83509   0.19311   0.51192   1.000
    C152    C    0.83510   0.69317   0.51194   1.000
    C153    C    0.34052   0.13894   0.67255   1.000
    C154    C    0.34054   0.63897   0.67255   1.000
    C155    C    0.84051   0.13894   0.67255   1.000
    C156    C    0.84053   0.63897   0.67255   1.000
    C157    C    0.31721   0.09315   0.70046   1.000
    C158    C    0.31724   0.59318   0.70045   1.000
    C159    C    0.81721   0.09315   0.70046   1.000
    C160    C    0.81723   0.59318   0.70045   1.000
    C161    C    0.00960   0.05426   0.67120   1.000
    C162    C    0.00962   0.55430   0.67123   1.000
    C163    C    0.50959   0.05426   0.67125   1.000
    C164    C    0.50962   0.55430   0.67123   1.000
    C165    C    0.03079   0.15222   0.49295   1.000
    C166    C    0.03080   0.65227   0.49296   1.000
    C167    C    0.53078   0.15222   0.49295   1.000
    C168    C    0.53079   0.65227   0.49296   1.000
    C169    C    0.40120   0.05083   0.70049   1.000
    C170    C    0.40123   0.55085   0.70047   1.000
    C171    C    0.90120   0.05083   0.70049   1.000
    C172    C    0.90123   0.55085   0.70047   1.000
    C173    C    0.30978   0.18005   0.45140   1.000
    C174    C    0.30978   0.68011   0.45145   1.000
    C175    C    0.80976   0.18005   0.45144   1.000
    C176    C    0.19659   0.07027   0.96766   1.000
    C177    C    0.19656   0.57028   0.96768   1.000
    C178    C    0.69659   0.07027   0.96766   1.000
    C179    C    0.69655   0.57028   0.96768   1.000
    C180    C    0.19909   0.10847   0.85644   1.000
    C181    C    0.19905   0.60849   0.85646   1.000
    C182    C    0.69908   0.10847   0.85644   1.000
    C183    C    0.69904   0.60849   0.85646   1.000
    C184    C    0.28338   0.15075   0.85783   1.000
    C185    C    0.28334   0.65077   0.85785   1.000
    C186    C    0.78337   0.15075   0.85783   1.000
    C187    C    0.78333   0.65077   0.85785   1.000
    C188    C    0.25469   0.11019   0.06733   1.000
    C189    C    0.25467   0.61018   0.06735   1.000
    C190    C    0.75468   0.11019   0.06733   1.000
    C191    C    0.75466   0.61018   0.06735   1.000
    C192    C    0.14413   0.09603   0.08851   1.000
    C193    C    0.14411   0.59603   0.08853   1.000
    C194    C    0.64413   0.09603   0.08851   1.000
    C195    C    0.64410   0.59603   0.08853   1.000
    C196    C    0.08521   0.05681   0.98792   1.000
    C197    C    0.08518   0.55683   0.98790   1.000
    C198    C    0.58520   0.05681   0.98792   1.000
    C199    C    0.58517   0.55682   0.98794   1.000
    C200    C    0.09075   0.11088   0.82727   1.000
    C201    C    0.09071   0.61090   0.82728   1.000
    C202    C    0.59074   0.11088   0.82727   1.000
    C203    C    0.59071   0.61090   0.82728   1.000
    C204    C    0.06739   0.15670   0.79940   1.000
    C205    C    0.06736   0.65671   0.79940   1.000
    C206    C    0.56738   0.15670   0.79940   1.000
    C207    C    0.56735   0.65671   0.79940   1.000
    C208    C    0.25971   0.19551   0.82861   1.000
    C209    C    0.25967   0.69552   0.82860   1.000
    C210    C    0.75970   0.19551   0.82861   1.000
    C211    C    0.75966   0.69552   0.82860   1.000
    C212    C    0.28086   0.09768   0.00681   1.000
    C213    C    0.28083   0.59767   0.00683   1.000
    C214    C    0.78085   0.09767   0.00681   1.000
    C215    C    0.78082   0.59767   0.00683   1.000
    C216    C    0.15133   0.19901   0.79940   1.000
    C217    C    0.15129   0.69902   0.79941   1.000
    C218    C    0.65132   0.19901   0.79940   1.000
    C219    C    0.65129   0.69902   0.79941   1.000
    C220    C    0.05989   0.06995   0.04800   1.000
    C221    C    0.05986   0.56996   0.04840   1.000
    C222    C    0.55988   0.06995   0.04839   1.000
    C223    C    0.55985   0.56995   0.04842   1.000
    C224    C    0.05348   0.32038   0.46780   1.000
    C225    C    0.05349   0.82044   0.46784   1.000
    C226    C    0.55347   0.32038   0.46783   1.000
    C227    C    0.55348   0.82044   0.46784   1.000
    C228    C    0.05110   0.35870   0.35663   1.000
    C229    C    0.05113   0.85875   0.35664   1.000
    C230    C    0.55110   0.35870   0.35663   1.000
    C231    C    0.55112   0.85875   0.35664   1.000
    C232    C    0.46675   0.40101   0.35801   1.000
    C233    C    0.46678   0.90106   0.35801   1.000
    C234    C    0.96674   0.40101   0.35801   1.000
    C235    C    0.96677   0.90106   0.35801   1.000
    C236    C    0.49534   0.36021   0.56755   1.000
    C237    C    0.49534   0.86026   0.56750   1.000
    C238    C    0.99532   0.36020   0.56755   1.000
    C239    C    0.99533   0.86025   0.56750   1.000
    C240    C    0.10591   0.34600   0.58870   1.000
    C241    C    0.10591   0.84605   0.58872   1.000
    C242    C    0.60591   0.34600   0.58870   1.000
    C243    C    0.60591   0.84605   0.58872   1.000
    C244    C    0.16487   0.30687   0.48805   1.000
    C245    C    0.16488   0.80693   0.48800   1.000
    C246    C    0.66486   0.30686   0.48805   1.000
    C247    C    0.66487   0.80693   0.48807   1.000
    C248    C    0.15944   0.36105   0.32744   1.000
    C249    C    0.15947   0.86109   0.32744   1.000
    C250    C    0.65944   0.36105   0.32744   1.000
    C251    C    0.65946   0.86109   0.32744   1.000
    C252    C    0.18274   0.40684   0.29953   1.000
    C253    C    0.18278   0.90687   0.29952   1.000
    C254    C    0.68274   0.40684   0.29953   1.000
    C255    C    0.68277   0.90687   0.29952   1.000
    C256    C    0.49036   0.44573   0.32875   1.000
    C257    C    0.49040   0.94577   0.32870   1.000
    C258    C    0.99035   0.44573   0.32875   1.000
    C259    C    0.99039   0.94577   0.32874   1.000
    C260    C    0.46918   0.34777   0.50703   1.000
    C261    C    0.46919   0.84782   0.50700   1.000
    C262    C    0.96917   0.34776   0.50703   1.000
    C263    C    0.96918   0.84782   0.50705   1.000
    C264    C    0.09875   0.44917   0.29951   1.000
    C265    C    0.09879   0.94920   0.29900   1.000
    C266    C    0.59875   0.44917   0.29951   1.000
    C267    C    0.59878   0.94920   0.29949   1.000
    C268    C    0.19020   0.31994   0.54853   1.000
    C269    C    0.19021   0.81999   0.54855   1.000
    C270    C    0.69019   0.31993   0.54853   1.000
    C271    C    0.69020   0.81998   0.54855   1.000
    C272    C    0.30343   0.42975   0.03230   1.000
    C273    C    0.30339   0.92976   0.03232   1.000
    C274    C    0.80342   0.42975   0.03230   1.000
    C275    C    0.80338   0.92976   0.03232   1.000
    C276    C    0.30093   0.39153   0.14350   1.000
    C277    C    0.30089   0.89155   0.14354   1.000
    C278    C    0.80092   0.39153   0.14353   1.000
    C279    C    0.80088   0.89155   0.14354   1.000
    C280    C    0.21663   0.34925   0.14214   1.000
    C281    C    0.21659   0.84927   0.14216   1.000
    C282    C    0.71662   0.34925   0.14214   1.000
    C283    C    0.71658   0.84927   0.14210   1.000
    C284    C    0.24530   0.38985   0.93263   1.000
    C285    C    0.24529   0.88984   0.93266   1.000
    C286    C    0.74531   0.38984   0.93263   1.000
    C287    C    0.74528   0.88984   0.93266   1.000
    C288    C    0.35586   0.40400   0.91145   1.000
    C289    C    0.35584   0.90400   0.91147   1.000
    C290    C    0.85586   0.40400   0.91145   1.000
    C291    C    0.85583   0.90400   0.91147   1.000
    C292    C    0.41480   0.44320   0.01204   1.000
    C293    C    0.41476   0.94322   0.01207   1.000
    C294    C    0.91479   0.44320   0.01204   1.000
    C295    C    0.91476   0.94321   0.01207   1.000
    C296    C    0.40926   0.38912   0.17270   1.000
    C297    C    0.40923   0.88914   0.17272   1.000
    C298    C    0.90926   0.38912   0.17270   1.000
    C299    C    0.90922   0.88914   0.17272   1.000
    C300    C    0.43261   0.34330   0.20058   1.000
    C301    C    0.43258   0.84332   0.20059   1.000
    C302    C    0.93261   0.34330   0.20058   1.000
    C303    C    0.93257   0.84332   0.20059   1.000
    C304    C    0.24030   0.30450   0.17136   1.000
    C305    C    0.24026   0.80452   0.17138   1.000
    C306    C    0.74029   0.30450   0.17136   1.000
    C307    C    0.74025   0.80452   0.17138   1.000
    C308    C    0.21915   0.40236   0.99315   1.000
    C309    C    0.21912   0.90235   0.99318   1.000
    C310    C    0.71914   0.40235   0.99315   1.000
    C311    C    0.71911   0.90235   0.99318   1.000
    C312    C    0.34867   0.30100   0.20058   1.000
    C313    C    0.34864   0.80101   0.20059   1.000
    C314    C    0.84867   0.30100   0.20058   1.000
    C315    C    0.84863   0.80101   0.20059   1.000
    C316    C    0.44012   0.43007   0.95156   1.000
    C317    C    0.44008   0.93008   0.95159   1.000
    C318    C    0.94011   0.43008   0.95156   1.000
    C319    C    0.94008   0.93008   0.95159   1.000
    O320    O    0.40496   0.24536   0.63240   1.000
    O321    O    0.40492   0.74540   0.63241   1.000
    O322    O    0.90495   0.24536   0.63240   1.000
    O323    O    0.90491   0.74540   0.63241   1.000
    O324    O    0.15477   0.00451   0.86753   1.000
    O325    O    0.15477   0.50452   0.86753   1.000
    O326    O    0.65477   0.00451   0.86753   1.000
    O327    O    0.65476   0.50452   0.86753   1.000
    O328    O    0.09503   0.25463   0.36758   1.000
    O329    O    0.09499   0.75466   0.36759   1.000
    O330    O    0.59502   0.25463   0.36758   1.000
    O331    O    0.59498   0.75467   0.36759   1.000
    O332    O    0.34522   0.49549   0.13246   1.000
    O333    O    0.34521   0.99551   0.13246   1.000
    O334    O    0.84521   0.49550   0.13246   1.000
    O335    O    0.84521   0.99551   0.13246   1.000
loop_
    _geom_bond_atom_site_label_1
    _geom_bond_atom_site_label_2
    _geom_bond_distance
    _geom_bond_site_symmetry_2
    _ccdc_geom_bond_type
    C212   C188      1.39430      .   S
    C212   C176      1.39938  1_554   S
    C212   H56       1.08723  1_554   S
    C214   C190      1.39430      .   S
    C214   C178      1.39936  1_554   S
    C214   H58       1.08724  1_554   S
    C215   C191      1.39428      .   S
    C215   C179      1.39933  1_554   S
    C215   H59       1.08723  1_554   S
    C213   C189      1.39428      .   S
    C213   C177      1.39933  1_554   S
    C213   H57       1.08723  1_554   S
    H123   C310      1.08724  1_554   S
    H121   C308      1.08725  1_554   S
    H124   C311      1.08724  1_554   S
    H122   C309      1.08723  1_554   S
    C294   C274      1.39731      .   S
    C294   H107      1.08790      .   S
    C294   C318      1.39241  1_554   S
    C292   C272      1.39731      .   S
    C292   H105      1.08788      .   S
    C292   C316      1.39241  1_554   S
    C293   C273      1.39726      .   S
    C293   H106      1.08775      .   S
    C293   C317      1.39244  1_554   S
    C295   C275      1.39726      .   S
    C295   H108      1.08774      .   S
    C295   C319      1.39244  1_554   S
    C274   C310      1.39933  1_554   S
    C272   C308      1.39932  1_554   S
    C275   C311      1.39923  1_554   S
    C273   C309      1.39924  1_554   S
    C220   H62       1.09082  1_455   S
    C220   C192      1.40522      .   S
    C220   C196      1.38378  1_554   S
    C222   H60       1.08712      .   S
    C222   C194      1.40005      .   S
    C222   C198      1.39223  1_554   S
    C221   H63       1.08737  1_455   S
    C221   C193      1.40015      .   S
    C221   C197      1.39286  1_554   S
    C223   H61       1.08705      .   S
    C223   C195      1.39990      .   S
    C223   C199      1.39242  1_554   S
    C190   C194      1.40193      .   S
    C190   H38       1.09010      .   S
    C188   C192      1.40193      .   S
    C188   H36       1.09010      .   S
    C191   C195      1.40190      .   S
    C191   H39       1.09011      .   S
    C189   C193      1.40192      .   S
    C189   H37       1.09010      .   S
    H100   C283      1.08816      .   S
    H99    C282      1.08812      .   S
    H97    C280      1.08811      .   S
    H98    C281      1.08807      .   S
    C283   C279      1.40064      .   S
    C283   C307      1.39270      .   S
    C282   C278      1.40076      .   S
    C282   C306      1.39182      .   S
    C280   C276      1.40081      .   S
    C280   C304      1.39182      .   S
    C281   C277      1.40078      .   S
    C281   C305      1.39185      .   S
    C276   C296      1.39859      .   S
    C278   C298      1.39828      .   S
    C279   C299      1.39842      .   S
    C277   C297      1.39843      .   S
    C306   H119      1.08957      .   S
    C306   C314      1.40259      .   S
    C304   H117      1.08942      .   S
    C304   C312      1.40257      .   S
    C307   H120      1.08956      .   S
    C307   C315      1.40252      .   S
    C305   H118      1.08957      .   S
    C305   C313      1.40253      .   S
    C296   H109      1.08900      .   S
    C296   C300      1.39551      .   S
    C298   H111      1.08899      .   S
    C298   C302      1.39552      .   S
    C297   H110      1.08900      .   S
    C297   C301      1.39542      .   S
    C299   H112      1.08900      .   S
    C299   C303      1.39542      .   S
    C314   C302      1.40187      .   S
    C302   H113      1.08795  1_655   S
    C300   C312      1.40187      .   S
    C300   H115      1.08783      .   S
    C315   C303      1.40187      .   S
    C303   H114      1.08804  1_655   S
    C313   C301      1.40187      .   S
    C301   H116      1.08702      .   S
    H83    C255      1.08805      .   S
    H81    C253      1.08781      .   S
    H82    C254      1.08776      .   S
    H80    C252      1.08777      .   S
    C265   C253      1.40322      .   S
    C265   C259      1.40823  1_455   S
    C267   C255      1.40183      .   S
    C267   C257      1.40224      .   S
    C264   C252      1.40182      .   S
    C264   C258      1.40272  1_455   S
    C266   C254      1.40183      .   S
    C266   C256      1.40260      .   S
    C253   C249      1.39554      .   S
    C255   C251      1.39556      .   S
    C252   C248      1.39552      .   S
    C254   C250      1.39554      .   S
    H76    C248      1.08896      .   S
    H79    C251      1.08895      .   S
    H78    C250      1.08897      .   S
    H77    C249      1.08896      .   S
    H86    C257      1.08945      .   S
    H88    C259      1.08958      .   S
    H85    C256      1.08958      .   S
    H87    C258      1.08954      .   S
    C251   C231      1.39832      .   S
    C250   C230      1.39824      .   S
    C249   C229      1.39830      .   S
    C248   C228      1.39824      .   S
    C257   C233      1.39236      .   S
    C259   C235      1.39181      .   S
    C258   C234      1.39181      .   S
    C256   C232      1.39179      .   S
    C228   C234      1.40089  1_455   S
    C230   C232      1.40080      .   S
    C229   C235      1.40091  1_455   S
    C231   C233      1.40081      .   S
    C235   H67       1.08802      .   S
    C234   H66       1.08806      .   S
    C233   H65       1.08803      .   S
    C232   H64       1.08807      .   S
    H4     C141      1.09018      .   S
    H6     C143      1.09019      .   S
    H5     C142      1.09032      .   S
    H7     C144      1.09005      .   S
    C147   C141      1.40218  1_655   S
    C147   C175      1.40010      .   S
    C145   C143      1.40204      .   S
    C145   C173      1.39958      .   S
    C148   C142      1.40210  1_655   S
    C148   C84       1.39999      .   S
    C146   C144      1.40198      .   S
    C146   C174      1.40000      .   S
    C141   C165      1.39432      .   S
    C143   C167      1.39432      .   S
    C144   C168      1.39435      .   S
    C142   C166      1.39435      .   S
    H28    C173      1.08682      .   S
    H29    C174      1.08725      .   S
    H30    C175      1.08719      .   S
    H31    C84       1.08708      .   S
    C173   C149      1.39336      .   S
    C175   C151      1.39249      .   S
    C174   C150      1.39273      .   S
    C84    C152      1.39273      .   S
    H72    C244      1.08786      .   S
    H74    C246      1.08788      .   S
    H75    C247      1.08788      .   S
    H73    C245      1.08695      .   S
    C224   C244      1.39755      .   S
    C224   C262      1.39970  1_455   S
    C226   C246      1.39728      .   S
    C226   C260      1.39924      .   S
    C227   C247      1.39735      .   S
    C227   C261      1.39872      .   S
    C225   C245      1.39677      .   S
    C225   C263      1.39944  1_455   S
    C245   C269      1.39401      .   S
    C244   C268      1.39252      .   S
    C246   C270      1.39252      .   S
    C247   C271      1.39249      .   S
    H89    C260      1.08746      .   S
    H91    C262      1.08746      .   S
    H92    C263      1.08747      .   S
    H90    C261      1.08701      .   S
    C167   H26       1.08745      .   S
    C167   C129      1.39924      .   S
    C165   H24       1.08736      .   S
    C165   C131      1.39933  1_455   S
    C168   H27       1.08743      .   S
    C168   C130      1.39925      .   S
    C166   H25       1.08745      .   S
    C166   C132      1.39933  1_455   S
    C261   C237      1.39388      .   S
    C262   C238      1.39434      .   S
    C260   C236      1.39434      .   S
    C263   C239      1.39280      .   S
    C149   C129      1.39734      .   S
    C149   H8        1.08789      .   S
    C151   C131      1.39734      .   S
    C151   H10       1.08789      .   S
    C152   C132      1.39728      .   S
    C152   H11       1.08776      .   S
    C150   C130      1.39728      .   S
    C150   H9        1.08776      .   S
    C270   H95       1.08717      .   S
    C270   C242      1.40012      .   S
    C268   H93       1.08718      .   S
    C268   C240      1.40009      .   S
    C271   H96       1.08719      .   S
    C271   C243      1.40008      .   S
    C269   H94       1.08719      .   S
    C269   C241      1.40008      .   S
    C239   C241      1.40271  1_655   S
    C239   H71       1.09096      .   S
    C237   C243      1.40257      .   S
    C237   H69       1.09096      .   S
    C236   C242      1.40199      .   S
    C236   H68       1.09002      .   S
    C238   C240      1.40213  1_655   S
    C238   H70       1.09014      .   S
    H1     C138      1.08807      .   S
    H3     C140      1.08808      .   S
    H0     C137      1.08805      .   S
    H2     C139      1.08806      .   S
    C140   C134      1.40079      .   S
    C140   C164      1.39187      .   S
    C138   C136      1.40089  1_455   S
    C138   C162      1.39186      .   S
    C137   C135      1.40090  1_455   S
    C137   C161      1.39118      .   S
    C139   C133      1.40081      .   S
    C139   C163      1.39186      .   S
    C136   C156      1.39835      .   S
    C135   C155      1.39832      .   S
    C134   C154      1.39836      .   S
    C133   C153      1.39832      .   S
    C161   H20       1.08971      .   S
    C161   C171      1.40326  1_455   S
    C164   H23       1.08957      .   S
    C164   C170      1.40261      .   S
    C162   H21       1.08955      .   S
    C162   C172      1.40274  1_455   S
    C163   H22       1.08956      .   S
    C163   C169      1.40259      .   S
    C153   H12       1.08897      .   S
    C153   C157      1.39546      .   S
    C154   H13       1.08898      .   S
    C154   C158      1.39545      .   S
    C156   H15       1.08900      .   S
    C156   C160      1.39545      .   S
    C155   H14       1.08897      .   S
    C155   C159      1.39546      .   S
    C158   C170      1.40184      .   S
    C158   H17       1.08777      .   S
    C160   C172      1.40184      .   S
    C160   H19       1.08731      .   S
    C157   C169      1.40185      .   S
    C157   H16       1.08784      .   S
    C159   C171      1.40186      .   S
    C159   H18       1.08783      .   S
    H51    C205      1.08796  1_655   S
    H50    C204      1.08804  1_655   S
    H49    C207      1.08784      .   S
    H48    C206      1.08790      .   S
    C216   C204      1.40188      .   S
    C216   C208      1.40252      .   S
    C218   C206      1.40189      .   S
    C218   C210      1.40252      .   S
    C207   C219      1.40185      .   S
    C207   C203      1.39554      .   S
    C206   C202      1.39543      .   S
    C205   C217      1.40187      .   S
    C205   C201      1.39551      .   S
    C204   C200      1.39543      .   S
    C219   C211      1.40225      .   S
    C217   C209      1.40225      .   S
    H44    C200      1.08897      .   S
    H46    C202      1.08897      .   S
    H47    C203      1.08895      .   S
    H45    C201      1.08898      .   S
    H54    C210      1.08957      .   S
    H52    C208      1.08955      .   S
    H55    C211      1.08948      .   S
    H53    C209      1.08948      .   S
    C200   C180      1.39831      .   S
    C202   C182      1.39831      .   S
    C201   C181      1.39839      .   S
    C203   C183      1.39839      .   S
    C209   C185      1.39224      .   S
    C211   C187      1.39225      .   S
    C208   C184      1.39188      .   S
    C210   C186      1.39188      .   S
    C182   C186      1.40076      .   S
    C180   C184      1.40076      .   S
    C183   C187      1.40077      .   S
    C181   C185      1.40076      .   S
    C184   H32       1.08805      .   S
    C186   H34       1.08783      .   S
    C185   H33       1.08801      .   S
    C187   H35       1.08800      .   S
    H102   C285      1.09089      .   S
    H101   C284      1.09011      .   S
    H103   C286      1.09012      .   S
    H104   C287      1.09023      .   S
    C288   C284      1.40190      .   S
    C288   C316      1.39990      .   S
    C290   C286      1.40189      .   S
    C290   C318      1.39991      .   S
    C289   C285      1.40201      .   S
    C289   C317      1.40006      .   S
    C291   C287      1.40202      .   S
    C291   C319      1.40004      .   S
    C284   C308      1.39427      .   S
    C286   C310      1.39427      .   S
    C285   C309      1.39429      .   S
    C287   C311      1.39429      .   S
    H125   C318      1.08718  1_455   S
    H127   C316      1.08707      .   S
    H126   C319      1.08726  1_455   S
    H128   C317      1.08713      .   S
    H40    C196      1.08788      .   S
    H42    C198      1.08788      .   S
    H41    C197      1.08735      .   S
    H43    C199      1.08789      .   S
    C176   C196      1.39734      .   S
    C178   C198      1.39736      .   S
    C179   C199      1.39733      .   S
    C177   C197      1.39700      .   S
