# CIF file generated by openbabel 2.4.90, see http://openbabel.sf.net
data_I
_chemical_name_common ''
_cell_length_a 11.298
_cell_length_b 24.39
_cell_length_c 22.765
_cell_angle_alpha 99.196
_cell_angle_beta 89.99
_cell_angle_gamma 89.963
_space_group_name_H-M_alt 'P 1'
_space_group_name_Hall 'P 1'
loop_
    _symmetry_equiv_pos_as_xyz
    x,y,z
loop_
    _atom_site_label
    _atom_site_type_symbol
    _atom_site_fract_x
    _atom_site_fract_y
    _atom_site_fract_z
    _atom_site_occupancy
    Zr0     Zr   0.38286   0.31745   0.72328   1.000
    Zr1     Zr   0.38283   0.81746   0.72330   1.000
    Zr2     Zr   0.88285   0.31745   0.72328   1.000
    Zr3     Zr   0.88282   0.81746   0.72330   1.000
    Zr4     Zr   0.13291   0.43247   0.77676   1.000
    Zr5     Zr   0.13288   0.93246   0.77679   1.000
    Zr6     Zr   0.63290   0.43247   0.77676   1.000
    Zr7     Zr   0.63288   0.93247   0.77679   1.000
    Zr8     Zr   0.11714   0.18256   0.27669   1.000
    Zr9     Zr   0.11711   0.68257   0.27671   1.000
    Zr10    Zr   0.61713   0.18256   0.27669   1.000
    Zr11    Zr   0.61711   0.68257   0.27671   1.000
    Zr12    Zr   0.36710   0.06756   0.22319   1.000
    Zr13    Zr   0.36707   0.56755   0.22322   1.000
    Zr14    Zr   0.86710   0.06756   0.22319   1.000
    Zr15    Zr   0.86707   0.56755   0.22322   1.000
    N16     N    0.95149   0.29689   0.38972   1.000
    O17     O    0.10056   0.23661   0.34486   1.000
    N18     N    0.29852   0.04650   0.88955   1.000
    O19     O    0.14930   0.98650   0.84485   1.000
    N20     N    0.79849   0.54652   0.88957   1.000
    O21     O    0.64930   0.48651   0.84484   1.000
    N22     N    0.29849   0.54652   0.88957   1.000
    O23     O    0.14930   0.48651   0.84484   1.000
    N24     N    0.95149   0.79696   0.38975   1.000
    O25     O    0.10052   0.73664   0.34487   1.000
    N26     N    0.54847   0.20309   0.61021   1.000
    O27     O    0.39943   0.26338   0.65512   1.000
    N28     N    0.79851   0.04650   0.88955   1.000
    O29     O    0.64930   0.98650   0.84485   1.000
    N30     N    0.70146   0.95353   0.11044   1.000
    O31     O    0.85068   0.01352   0.15514   1.000
    N32     N    0.04847   0.20309   0.61021   1.000
    O33     O    0.89943   0.26338   0.65512   1.000
    N34     N    0.20149   0.45350   0.11043   1.000
    O35     O    0.35068   0.51351   0.15515   1.000
    N36     N    0.20146   0.95353   0.11044   1.000
    O37     O    0.35068   0.01352   0.15514   1.000
    N38     N    0.54846   0.70316   0.61027   1.000
    O39     O    0.39939   0.76341   0.65513   1.000
    N40     N    0.45149   0.79696   0.38975   1.000
    O41     O    0.60051   0.73664   0.34487   1.000
    N42     N    0.45149   0.29689   0.38972   1.000
    O43     O    0.60055   0.23661   0.34486   1.000
    N44     N    0.04846   0.70316   0.61027   1.000
    O45     O    0.89939   0.76341   0.65513   1.000
    N46     N    0.70148   0.45350   0.11043   1.000
    O47     O    0.85067   0.51351   0.15515   1.000
    C48     C    0.60634   0.11353   0.17103   1.000
    O49     O    0.52139   0.10189   0.18342   1.000
    O50     O    0.63228   0.13202   0.20245   1.000
    O51     O    0.69477   0.10327   0.18908   1.000
    O52     O    0.62801   0.10330   0.12272   1.000
    C53     C    0.62950   0.00927   0.25808   1.000
    O54     O    0.61111   0.97385   0.28178   1.000
    O55     O    0.71432   0.02388   0.24976   1.000
    O56     O    0.54005   0.02679   0.24684   1.000
    C57     C    0.37945   0.24082   0.24187   1.000
    O58     O    0.29003   0.22330   0.25309   1.000
    O59     O    0.46429   0.22622   0.25018   1.000
    O60     O    0.36103   0.27630   0.21823   1.000
    C61     C    0.35648   0.13651   0.32870   1.000
    O62     O    0.37806   0.14671   0.37704   1.000
    O63     O    0.44490   0.14681   0.31071   1.000
    O64     O    0.38239   0.11806   0.29733   1.000
    O65     O    0.27151   0.14816   0.31633   1.000
    C66     C    0.12951   0.00927   0.25808   1.000
    O67     O    0.21433   0.02388   0.24976   1.000
    O68     O    0.04006   0.02679   0.24684   1.000
    O69     O    0.11112   0.97385   0.28171   1.000
    C70     C    0.10635   0.11353   0.17103   1.000
    O71     O    0.02139   0.10189   0.18342   1.000
    O72     O    0.13229   0.13202   0.20245   1.000
    O73     O    0.19478   0.10327   0.18908   1.000
    O74     O    0.12801   0.10330   0.12271   1.000
    C75     C    0.87944   0.24082   0.24187   1.000
    O76     O    0.86102   0.27630   0.21823   1.000
    O77     O    0.79002   0.22330   0.25309   1.000
    O78     O    0.96429   0.22622   0.25018   1.000
    C79     C    0.85648   0.13651   0.32870   1.000
    O80     O    0.87806   0.14671   0.37704   1.000
    O81     O    0.94490   0.14681   0.31071   1.000
    O82     O    0.88239   0.11806   0.29733   1.000
    O83     O    0.77150   0.14816   0.31633   1.000
    C84     C    0.89361   0.38649   0.82892   1.000
    O85     O    0.87196   0.39672   0.87723   1.000
    O86     O    0.86768   0.36800   0.79750   1.000
    O87     O    0.80519   0.39676   0.81087   1.000
    O88     O    0.97858   0.39814   0.81652   1.000
    C89     C    0.14353   0.36348   0.67125   1.000
    O90     O    0.22850   0.35184   0.68363   1.000
    O91     O    0.05510   0.35319   0.68926   1.000
    O92     O    0.11762   0.38195   0.70263   1.000
    O93     O    0.12193   0.35328   0.62292   1.000
    C94     C    0.64352   0.36348   0.67125   1.000
    O95     O    0.72849   0.35184   0.68363   1.000
    O96     O    0.55510   0.35319   0.68926   1.000
    O97     O    0.61761   0.38195   0.70263   1.000
    O98     O    0.62193   0.35328   0.62292   1.000
    C99     C    0.37054   0.49075   0.74173   1.000
    O100    O    0.45998   0.47323   0.75303   1.000
    O101    O    0.38892   0.52620   0.71805   1.000
    O102    O    0.28571   0.47615   0.75013   1.000
    C103    C    0.87053   0.49075   0.74186   1.000
    O104    O    0.78570   0.47615   0.75019   1.000
    O105    O    0.95998   0.47323   0.75310   1.000
    O106    O    0.88891   0.52620   0.71817   1.000
    C107    C    0.12054   0.25919   0.75811   1.000
    O108    O    0.13896   0.22370   0.78175   1.000
    O109    O    0.03569   0.27379   0.74981   1.000
    O110    O    0.20996   0.27670   0.74689   1.000
    C111    C    0.39362   0.38649   0.82889   1.000
    O112    O    0.36768   0.36800   0.79749   1.000
    O113    O    0.30520   0.39676   0.81086   1.000
    O114    O    0.47858   0.39814   0.81648   1.000
    O115    O    0.37197   0.39672   0.87722   1.000
    C116    C    0.62053   0.25919   0.75811   1.000
    O117    O    0.70995   0.27670   0.74689   1.000
    O118    O    0.53569   0.27379   0.74981   1.000
    O119    O    0.63896   0.22370   0.78175   1.000
    C120    C    0.60633   0.61353   0.17106   1.000
    O121    O    0.63227   0.63202   0.20248   1.000
    O122    O    0.69476   0.60326   0.18911   1.000
    O123    O    0.52137   0.60188   0.18346   1.000
    O124    O    0.62799   0.60330   0.12275   1.000
    C125    C    0.37943   0.74083   0.24187   1.000
    O126    O    0.36100   0.77631   0.21823   1.000
    O127    O    0.46427   0.72623   0.25018   1.000
    O128    O    0.29001   0.72331   0.25309   1.000
    C129    C    0.35645   0.63654   0.32870   1.000
    O130    O    0.37804   0.64675   0.37703   1.000
    O131    O    0.27147   0.64819   0.31634   1.000
    O132    O    0.44486   0.64683   0.31071   1.000
    O133    O    0.38236   0.61807   0.29734   1.000
    C134    C    0.12945   0.50926   0.25812   1.000
    O135    O    0.04001   0.52679   0.24688   1.000
    O136    O    0.11107   0.47383   0.28181   1.000
    O137    O    0.21428   0.52387   0.24979   1.000
    C138    C    0.62945   0.50927   0.25811   1.000
    O139    O    0.61107   0.47383   0.28181   1.000
    O140    O    0.54000   0.52679   0.24688   1.000
    O141    O    0.71428   0.52387   0.24979   1.000
    C142    C    0.85644   0.63654   0.32870   1.000
    O143    O    0.94486   0.64683   0.31071   1.000
    O144    O    0.88235   0.61807   0.29734   1.000
    O145    O    0.87804   0.64675   0.37703   1.000
    O146    O    0.77147   0.64819   0.31634   1.000
    C147    C    0.87942   0.74083   0.24187   1.000
    O148    O    0.96427   0.72623   0.25018   1.000
    O149    O    0.86099   0.77631   0.21823   1.000
    O150    O    0.79000   0.72331   0.25309   1.000
    C151    C    0.10634   0.61353   0.17106   1.000
    O152    O    0.02138   0.60188   0.18346   1.000
    O153    O    0.12800   0.60330   0.12274   1.000
    O154    O    0.13228   0.63202   0.20248   1.000
    O155    O    0.19477   0.60326   0.18911   1.000
    C156    C    0.87049   0.99075   0.74178   1.000
    O157    O    0.95993   0.97323   0.75306   1.000
    O158    O    0.88887   0.02618   0.71813   1.000
    O159    O    0.78566   0.97614   0.75009   1.000
    C160    C    0.12051   0.75919   0.75811   1.000
    O161    O    0.13893   0.72371   0.78176   1.000
    O162    O    0.20993   0.77671   0.74690   1.000
    O163    O    0.03566   0.77380   0.74981   1.000
    C164    C    0.89361   0.88649   0.82894   1.000
    O165    O    0.87195   0.89672   0.87726   1.000
    O166    O    0.86767   0.86800   0.79753   1.000
    O167    O    0.80518   0.89675   0.81090   1.000
    O168    O    0.97857   0.89813   0.81654   1.000
    C169    C    0.62050   0.75919   0.75811   1.000
    O170    O    0.53566   0.77380   0.74981   1.000
    O171    O    0.70992   0.77671   0.74690   1.000
    O172    O    0.63893   0.72371   0.78176   1.000
    C173    C    0.39362   0.88649   0.82895   1.000
    O174    O    0.47858   0.89813   0.81656   1.000
    O175    O    0.37196   0.89672   0.87726   1.000
    O176    O    0.36768   0.86800   0.79753   1.000
    O177    O    0.30519   0.89675   0.81091   1.000
    C178    C    0.64348   0.86351   0.67129   1.000
    O179    O    0.72845   0.85186   0.68367   1.000
    O180    O    0.62190   0.85331   0.62295   1.000
    O181    O    0.55506   0.85321   0.68929   1.000
    O182    O    0.61757   0.88196   0.70266   1.000
    C183    C    0.37049   0.99075   0.74178   1.000
    O184    O    0.45994   0.97323   0.75306   1.000
    O185    O    0.28566   0.97614   0.75009   1.000
    O186    O    0.38888   0.02618   0.71814   1.000
    C187    C    0.14348   0.86351   0.67129   1.000
    O188    O    0.22846   0.85186   0.68367   1.000
    O189    O    0.05506   0.85321   0.68929   1.000
    O190    O    0.11758   0.88196   0.70266   1.000
    O191    O    0.12191   0.85331   0.62295   1.000
loop_
    _geom_bond_atom_site_label_1
    _geom_bond_atom_site_label_2
    _geom_bond_distance
    _geom_bond_site_symmetry_2
    _ccdc_geom_bond_type
    N16    O17       2.35735  1_655   S
    Zr8    O17       1.87802      .   S
    N18    O19       2.35516  1_545   S
    Zr5    O19       1.87600      .   S
    N20    O21       2.35533      .   S
    Zr6    O21       1.87638      .   S
    N22    O23       2.35533      .   S
    Zr4    O23       1.87638      .   S
    N24    O25       2.35771  1_655   S
    Zr9    O25       1.87813      .   S
    N26    O27       2.35775      .   S
    Zr0    O27       1.87805      .   S
    N28    O29       2.35516  1_545   S
    Zr7    O29       1.87599      .   S
    N30    O31       2.35513  1_565   S
    Zr14   O31       1.87591      .   S
    N32    O33       2.35780  1_455   S
    Zr2    O33       1.87805      .   S
    N34    O35       2.35525      .   S
    Zr13   O35       1.87630      .   S
    N36    O37       2.35514  1_565   S
    Zr12   O37       1.87591      .   S
    N38    O39       2.35713      .   S
    Zr1    O39       1.87794      .   S
    N40    O41       2.35766      .   S
    Zr11   O41       1.87815      .   S
    N42    O43       2.35732      .   S
    Zr10   O43       1.87803      .   S
    N44    O45       2.35718  1_455   S
    Zr3    O45       1.87794      .   S
    N46    O47       2.35526      .   S
    Zr15   O47       1.87629      .   S
    C48    O49       1.05230      .   S
    Zr12   O49       2.19151      .   S
    C48    O50       0.83548      .   S
    Zr10   O50       1.93358      .   S
    C48    O51       1.12358      .   S
    Zr14   O51       2.31660      .   S
    C48    O52       1.11528      .   S
    N28    O52       5.60803  1_556   S
    C53    O54       1.10910  1_545   S
    N40    O54       5.59487      .   S
    C53    O55       1.05033      .   S
    Zr14   O55       2.16517      .   S
    C53    O56       1.14186      .   S
    Zr12   O56       2.29464      .   S
    C57    O58       1.14181      .   S
    Zr8    O58       2.29448      .   S
    C57    O59       1.05006      .   S
    Zr10   O59       2.16410      .   S
    C57    O60       1.10932      .   S
    N34    O60       5.59749      .   S
    C61    O62       1.11566      .   S
    N26    O62       5.60787      .   S
    C61    O63       1.12332      .   S
    Zr10   O63       2.31599      .   S
    C61    O64       0.83386      .   S
    Zr12   O64       1.93175      .   S
    C61    O65       1.05222      .   S
    Zr8    O65       2.19102      .   S
    C66    O67       1.05033      .   S
    Zr12   O67       2.16518      .   S
    C66    O68       1.14190      .   S
    Zr14   O68       2.29474  1_655   S
    C66    O69       1.10810  1_545   S
    N24    O69       5.59583  1_655   S
    C70    O71       1.05234      .   S
    Zr14   O71       2.19160  1_655   S
    C70    O72       0.83548      .   S
    Zr8    O72       1.93359      .   S
    C70    O73       1.12358      .   S
    Zr12   O73       2.31661      .   S
    C70    O74       1.11549      .   S
    N18    O74       5.60783  1_556   S
    C75    O76       1.10930      .   S
    N46    O76       5.59751      .   S
    C75    O77       1.14181      .   S
    Zr10   O77       2.29448      .   S
    C75    O78       1.05009      .   S
    Zr8    O78       2.16418  1_455   S
    C79    O80       1.11568      .   S
    N32    O80       5.60787  1_455   S
    C79    O81       1.12336      .   S
    Zr8    O81       2.31608  1_455   S
    C79    O82       0.83386      .   S
    Zr14   O82       1.93175      .   S
    C79    O83       1.05222      .   S
    Zr10   O83       2.19102      .   S
    C84    O85       1.11535      .   S
    N46    O85       5.60823  1_554   S
    C84    O86       0.83535      .   S
    Zr2    O86       1.93350      .   S
    C84    O87       1.12344      .   S
    Zr6    O87       2.31630      .   S
    C84    O88       1.05249      .   S
    Zr4    O88       2.19187  1_455   S
    C89    O90       1.05216      .   S
    Zr0    O90       2.19097      .   S
    C89    O91       1.12341      .   S
    Zr2    O91       2.31619  1_655   S
    C89    O92       0.83396      .   S
    Zr4    O92       1.93189      .   S
    C89    O93       1.11561      .   S
    N16    O93       5.60868  1_655   S
    C94    O95       1.05216      .   S
    Zr2    O95       2.19096      .   S
    C94    O96       1.12338      .   S
    Zr0    O96       2.31610      .   S
    C94    O97       0.83397      .   S
    Zr6    O97       1.93188      .   S
    C94    O98       1.11560      .   S
    N42    O98       5.60867      .   S
    C99    O100      1.14222      .   S
    Zr6    O100      2.29488      .   S
    C99    O101      1.10903      .   S
    N38    O101      5.59389      .   S
    C99    O102      1.05080      .   S
    Zr4    O102      2.16590      .   S
    C103   O104      1.05045      .   S
    Zr6    O104      2.16537      .   S
    C103   O105      1.14183      .   S
    Zr4    O105      2.29453  1_455   S
    C103   O106      1.10927      .   S
    N44    O106      5.59535  1_455   S
    C107   O108      1.10929      .   S
    N18    O108      5.59760      .   S
    C107   O109      1.05008      .   S
    Zr2    O109      2.16421  1_655   S
    C107   O110      1.14186      .   S
    Zr0    O110      2.29460      .   S
    C111   O112      0.83508      .   S
    Zr0    O112      1.93324      .   S
    C111   O113      1.12330      .   S
    Zr4    O113      2.31615      .   S
    C111   O114      1.05251      .   S
    Zr6    O114      2.19138      .   S
    C111   O115      1.11568      .   S
    N34    O115      5.60854  1_554   S
    C116   O117      1.14186      .   S
    Zr2    O117      2.29460      .   S
    C116   O118      1.05005      .   S
    Zr0    O118      2.16413      .   S
    C116   O119      1.10928      .   S
    N28    O119      5.59761      .   S
    C120   O121      0.83543      .   S
    Zr11   O121      1.93367      .   S
    C120   O122      1.12350      .   S
    Zr15   O122      2.31647      .   S
    C120   O123      1.05239      .   S
    Zr13   O123      2.19167      .   S
    C120   O124      1.11533      .   S
    N20    O124      5.60805  1_556   S
    C125   O126      1.10931      .   S
    N36    O126      5.59765      .   S
    C125   O127      1.05006      .   S
    Zr11   O127      2.16418      .   S
    C125   O128      1.14185      .   S
    Zr9    O128      2.29457      .   S
    C129   O130      1.11574      .   S
    N38    O130      5.60929      .   S
    C129   O131      1.05206      .   S
    Zr9    O131      2.19074      .   S
    C129   O132      1.12320      .   S
    Zr11   O132      2.31589      .   S
    C129   O133      0.83377      .   S
    Zr13   O133      1.93164      .   S
    C134   O135      1.14186      .   S
    Zr15   O135      2.29460  1_655   S
    C134   O136      1.10922      .   S
    N16    O136      5.59517  1_655   S
    C134   O137      1.05040      .   S
    Zr13   O137      2.16531      .   S
    C138   O139      1.10924      .   S
    N42    O139      5.59516      .   S
    C138   O140      1.14182      .   S
    Zr13   O140      2.29451      .   S
    C138   O141      1.05040      .   S
    Zr15   O141      2.16527      .   S
    C142   O143      1.12323      .   S
    Zr9    O143      2.31597  1_455   S
    C142   O144      0.83377      .   S
    Zr15   O144      1.93165      .   S
    C142   O145      1.11574      .   S
    N44    O145      5.60931  1_455   S
    C142   O146      1.05206      .   S
    Zr11   O146      2.19074      .   S
    C147   O148      1.05010      .   S
    Zr9    O148      2.16426  1_455   S
    C147   O149      1.10932      .   S
    N30    O149      5.59764      .   S
    C147   O150      1.14185      .   S
    Zr11   O150      2.29456      .   S
    C151   O152      1.05243      .   S
    Zr15   O152      2.19177  1_655   S
    C151   O153      1.11536      .   S
    N22    O153      5.60802  1_556   S
    C151   O154      0.83542      .   S
    Zr9    O154      1.93367      .   S
    C151   O155      1.12350      .   S
    Zr13   O155      2.31647      .   S
    C156   O157      1.14214      .   S
    Zr5    O157      2.29516  1_455   S
    C156   O158      1.10835  1_565   S
    N32    O158      5.59482  1_455   S
    C156   O159      1.05029      .   S
    Zr7    O159      2.16633      .   S
    C160   O161      1.10928      .   S
    N22    O161      5.59751      .   S
    C160   O162      1.14184      .   S
    Zr1    O162      2.29453      .   S
    C160   O163      1.05008      .   S
    Zr3    O163      2.16417  1_655   S
    C164   O165      1.11540      .   S
    N30    O165      5.60818  1_554   S
    C164   O166      0.83532      .   S
    Zr3    O166      1.93341      .   S
    C164   O167      1.12346      .   S
    Zr7    O167      2.31644      .   S
    C164   O168      1.05243      .   S
    Zr5    O168      2.19157  1_455   S
    C169   O170      1.05005      .   S
    Zr1    O170      2.16409      .   S
    C169   O171      1.14184      .   S
    Zr3    O171      2.29453      .   S
    C169   O172      1.10927      .   S
    N20    O172      5.59751      .   S
    C173   O174      1.05237      .   S
    Zr7    O174      2.19167      .   S
    C173   O175      1.11523      .   S
    N36    O175      5.60806  1_554   S
    C173   O176      0.83544      .   S
    Zr1    O176      1.93353      .   S
    C173   O177      1.12352      .   S
    Zr5    O177      2.31649      .   S
    C178   O179      1.05221      .   S
    Zr3    O179      2.19097      .   S
    C178   O180      1.11576      .   S
    N40    O180      5.60853      .   S
    C178   O181      1.12333      .   S
    Zr1    O181      2.31599      .   S
    C178   O182      0.83376      .   S
    Zr7    O182      1.93163      .   S
    C183   O184      1.14211      .   S
    Zr7    O184      2.29507      .   S
    C183   O185      1.05029      .   S
    Zr5    O185      2.16632      .   S
    C183   O186      1.10833  1_565   S
    N26    O186      5.59481      .   S
    C187   O188      1.05221      .   S
    Zr1    O188      2.19097      .   S
    C187   O189      1.12336      .   S
    Zr3    O189      2.31607  1_655   S
    C187   O190      0.83376      .   S
    Zr5    O190      1.93163      .   S
    C187   O191      1.11577      .   S
    N24    O191      5.60854  1_655   S
