# CIF file generated by openbabel 2.4.90, see http://openbabel.sf.net
data_I
_chemical_name_common ''
_cell_length_a 22.087
_cell_length_b 17.892
_cell_length_c 20.541
_cell_angle_alpha 110.258
_cell_angle_beta 93.396
_cell_angle_gamma 89.007
_space_group_name_H-M_alt 'P 1'
_space_group_name_Hall 'P 1'
loop_
    _symmetry_equiv_pos_as_xyz
    x,y,z
loop_
    _atom_site_label
    _atom_site_type_symbol
    _atom_site_fract_x
    _atom_site_fract_y
    _atom_site_fract_z
    _atom_site_occupancy
    Zn0     Zn   0.59739   0.43772   0.22694   1.000
    Zn1     Zn   0.09315   0.54986   0.15480   1.000
    Zn2     Zn   0.59328   0.54975   0.15431   1.000
    Zn3     Zn   0.06958   0.93759   0.72224   1.000
    Zn4     Zn   0.57039   0.93744   0.72210   1.000
    Zn5     Zn   0.06343   0.04990   0.64984   1.000
    Zn6     Zn   0.56264   0.04977   0.64952   1.000
    Zn7     Zn   0.40263   0.56231   0.77300   1.000
    Zn8     Zn   0.90278   0.56191   0.77269   1.000
    Zn9     Zn   0.40733   0.45032   0.84572   1.000
    Zn10    Zn   0.90688   0.45014   0.84518   1.000
    Zn11    Zn   0.42963   0.06258   0.27789   1.000
    Zn12    Zn   0.93043   0.06244   0.27775   1.000
    Zn13    Zn   0.43737   0.95025   0.35047   1.000
    Zn14    Zn   0.93659   0.95013   0.35015   1.000
    H15     H    0.10676   0.21641   0.04619   1.000
    H16     H    0.60798   0.21656   0.04589   1.000
    H17     H    0.10053   0.10481   0.93069   1.000
    H18     H    0.60180   0.10480   0.93048   1.000
    H19     H    0.06779   0.27406   0.82749   1.000
    H20     H    0.56825   0.27365   0.82703   1.000
    H21     H    0.07509   0.38556   0.94223   1.000
    H22     H    0.57554   0.38533   0.94100   1.000
    H23     H    0.28965   0.39263   0.23156   1.000
    H24     H    0.79012   0.39343   0.23279   1.000
    H25     H    0.40333   0.39079   0.23297   1.000
    H26     H    0.90381   0.39219   0.23421   1.000
    H27     H    0.39983   0.58406   0.15439   1.000
    H28     H    0.89942   0.58402   0.15383   1.000
    H29     H    0.28615   0.58746   0.15498   1.000
    H30     H    0.78574   0.58692   0.15451   1.000
    H31     H    0.08723   0.60423   0.43541   1.000
    Zn32    Zn   0.09769   0.43813   0.22735   1.000
    H33     H    0.58663   0.60407   0.43420   1.000
    H34     H    0.07273   0.71643   0.54849   1.000
    H35     H    0.57232   0.71582   0.54758   1.000
    H36     H    0.06428   0.88265   0.43956   1.000
    H37     H    0.56454   0.88304   0.43960   1.000
    H38     H    0.07606   0.77141   0.32750   1.000
    H39     H    0.57645   0.77232   0.32738   1.000
    H40     H    0.09396   0.53297   0.00480   1.000
    H41     H    0.59396   0.53306   0.00420   1.000
    H42     H    0.07547   0.61839   0.93258   1.000
    H43     H    0.57496   0.61864   0.93218   1.000
    H44     H    0.06040   0.81887   0.12396   1.000
    H45     H    0.55972   0.81872   0.12378   1.000
    H46     H    0.07984   0.72478   0.18778   1.000
    H47     H    0.57972   0.72451   0.18739   1.000
    H48     H    0.11136   0.86638   0.94136   1.000
    H49     H    0.61068   0.86636   0.94155   1.000
    H50     H    0.12591   0.93696   0.85760   1.000
    H51     H    0.62591   0.93687   0.85790   1.000
    H52     H    0.00346   0.78876   0.71128   1.000
    H53     H    0.50360   0.78912   0.71100   1.000
    H54     H    0.48285   0.71220   0.78809   1.000
    H55     H    0.98337   0.71177   0.78845   1.000
    H56     H    0.26650   0.90711   0.74060   1.000
    H57     H    0.76647   0.90715   0.73975   1.000
    H58     H    0.38066   0.91279   0.74115   1.000
    H59     H    0.88061   0.91300   0.74069   1.000
    H60     H    0.36549   0.07757   0.63100   1.000
    H61     H    0.86573   0.07709   0.62992   1.000
    H62     H    0.25206   0.07336   0.63238   1.000
    H63     H    0.75227   0.07271   0.63082   1.000
    H64     H    0.06681   0.03766   0.49956   1.000
    H65     H    0.56636   0.03752   0.49920   1.000
    H66     H    0.09472   0.12559   0.43517   1.000
    H67     H    0.59494   0.12522   0.43488   1.000
    H68     H    0.10810   0.32024   0.63282   1.000
    H69     H    0.60890   0.31973   0.63260   1.000
    H70     H    0.07924   0.22373   0.68858   1.000
    H71     H    0.57938   0.22345   0.68828   1.000
    H72     H    0.20556   0.23440   0.31854   1.000
    H73     H    0.70573   0.23406   0.31802   1.000
    H74     H    0.18125   0.30654   0.23598   1.000
    H75     H    0.68125   0.30643   0.23568   1.000
    H76     H    0.03494   0.42070   0.34550   1.000
    H77     H    0.53534   0.42082   0.34589   1.000
    H78     H    0.05289   0.35402   0.43390   1.000
    H79     H    0.55356   0.35403   0.43422   1.000
    H80     H    0.02370   0.82400   0.01297   1.000
    H81     H    0.52265   0.82396   0.01290   1.000
    H82     H    0.99228   0.70956   0.90348   1.000
    H83     H    0.49140   0.70973   0.90322   1.000
    H84     H    0.14526   0.33244   0.52984   1.000
    H85     H    0.64622   0.33177   0.52963   1.000
    H86     H    0.18520   0.22144   0.42725   1.000
    H87     H    0.68563   0.22083   0.42667   1.000
    H88     H    0.39204   0.78348   0.95410   1.000
    H89     H    0.89328   0.78362   0.95380   1.000
    H90     H    0.39821   0.89524   0.06951   1.000
    H91     H    0.89950   0.89521   0.06930   1.000
    H92     H    0.43178   0.72638   0.17296   1.000
    H93     H    0.93224   0.72598   0.17250   1.000
    H94     H    0.42450   0.61471   0.05829   1.000
    H95     H    0.92494   0.61447   0.05777   1.000
    H96     H    0.21006   0.60651   0.76726   1.000
    H97     H    0.71051   0.60746   0.76837   1.000
    H98     H    0.09637   0.60775   0.76580   1.000
    H99     H    0.59681   0.60930   0.76690   1.000
    C100    C    0.57352   0.72720   0.49887   1.000
    C101    C    0.06807   0.80620   0.50090   1.000
    C102    C    0.56796   0.80610   0.50058   1.000
    C103    C    0.06931   0.82168   0.43861   1.000
    H104    H    0.10076   0.41591   0.84620   1.000
    H105    H    0.60032   0.41606   0.84557   1.000
    H106    H    0.21444   0.41302   0.84553   1.000
    H107    H    0.71399   0.41265   0.84498   1.000
    H108    H    0.41339   0.39595   0.56577   1.000
    H109    H    0.91280   0.39580   0.56461   1.000
    H110    H    0.42770   0.28419   0.45239   1.000
    H111    H    0.92728   0.28361   0.45152   1.000
    H112    H    0.43548   0.11698   0.56030   1.000
    H113    H    0.93573   0.11737   0.56043   1.000
    H114    H    0.42357   0.22770   0.67260   1.000
    H115    H    0.92396   0.22861   0.67248   1.000
    H116    H    0.40619   0.46697   0.99579   1.000
    H117    H    0.90609   0.46707   0.99520   1.000
    H118    H    0.42504   0.38137   0.06781   1.000
    H119    H    0.92458   0.38165   0.06743   1.000
    H120    H    0.44026   0.18127   0.87622   1.000
    H121    H    0.93964   0.18116   0.87605   1.000
    H122    H    0.42041   0.27551   0.81260   1.000
    H123    H    0.92021   0.27524   0.81222   1.000
    H124    H    0.38934   0.13366   0.05844   1.000
    H125    H    0.88870   0.13367   0.05864   1.000
    H126    H    0.37411   0.06315   0.14209   1.000
    H127    H    0.87413   0.06309   0.14239   1.000
    H128    H    0.49642   0.21091   0.28890   1.000
    H129    H    0.99657   0.21128   0.28874   1.000
    H130    H    0.01667   0.28829   0.21157   1.000
    H131    H    0.51717   0.28783   0.21190   1.000
    C132    C    0.16705   0.27484   0.32621   1.000
    C133    C    0.66728   0.27461   0.32589   1.000
    C134    C    0.15363   0.31437   0.28009   1.000
    C135    C    0.65375   0.31426   0.27980   1.000
    C136    C    0.07218   0.37890   0.34191   1.000
    H137    H    0.23355   0.09287   0.26024   1.000
    H138    H    0.73352   0.09291   0.25939   1.000
    H139    H    0.11940   0.08703   0.25930   1.000
    H140    H    0.61936   0.08722   0.25884   1.000
    H141    H    0.13429   0.92294   0.37008   1.000
    H142    H    0.63453   0.92245   0.36891   1.000
    H143    H    0.24775   0.92732   0.36917   1.000
    H144    H    0.74797   0.92667   0.36762   1.000
    H145    H    0.43366   0.96250   0.50079   1.000
    H146    H    0.93321   0.96237   0.50044   1.000
    H147    H    0.40508   0.87480   0.56510   1.000
    H148    H    0.90529   0.87444   0.56484   1.000
    H149    H    0.39113   0.68029   0.36739   1.000
    H150    H    0.89192   0.67979   0.36718   1.000
    H151    H    0.42064   0.77658   0.31171   1.000
    H152    H    0.92078   0.77630   0.31143   1.000
    H153    H    0.29430   0.76595   0.68197   1.000
    H154    H    0.79452   0.76554   0.68150   1.000
    H155    H    0.31880   0.69358   0.76431   1.000
    H156    H    0.81894   0.69340   0.76406   1.000
    H157    H    0.46471   0.57922   0.65409   1.000
    H158    H    0.96523   0.57935   0.65440   1.000
    H159    H    0.44647   0.64600   0.56575   1.000
    H160    H    0.94716   0.64600   0.56598   1.000
    H161    H    0.47736   0.17605   0.98709   1.000
    H162    H    0.97636   0.17604   0.98704   1.000
    H163    H    0.50862   0.29030   0.09677   1.000
    H164    H    0.00000   0.29048   0.09653   1.000
    H165    H    0.35381   0.66824   0.47035   1.000
    H166    H    0.85476   0.66758   0.47017   1.000
    H167    H    0.31439   0.77918   0.57331   1.000
    H168    H    0.81483   0.77855   0.57279   1.000
    C169    C    0.09134   0.37417   0.07016   1.000
    C170    C    0.59221   0.37424   0.06961   1.000
    C171    C    0.09084   0.30776   0.00118   1.000
    C172    C    0.59171   0.30771   0.00072   1.000
    C173    C    0.09830   0.22850   0.99796   1.000
    C174    C    0.59938   0.22852   0.99762   1.000
    C175    C    0.09478   0.16663   0.93410   1.000
    C176    C    0.59588   0.16657   0.93381   1.000
    C177    C    0.08336   0.18274   0.87230   1.000
    C178    C    0.58428   0.18253   0.87198   1.000
    C179    C    0.07720   0.26205   0.87557   1.000
    C180    C    0.57784   0.26178   0.87514   1.000
    C181    C    0.08119   0.32401   0.93933   1.000
    C182    C    0.58182   0.32381   0.93880   1.000
    C183    C    0.07644   0.11517   0.80377   1.000
    C184    C    0.57737   0.11486   0.80352   1.000
    C185    C    0.21295   0.49134   0.19224   1.000
    C186    C    0.71299   0.49106   0.19260   1.000
    C187    C    0.28111   0.49014   0.19324   1.000
    C188    C    0.78115   0.49026   0.19365   1.000
    C189    C    0.31426   0.43470   0.21520   1.000
    C190    C    0.81455   0.43537   0.21609   1.000
    C191    C    0.37734   0.43367   0.21596   1.000
    C192    C    0.87764   0.43467   0.21685   1.000
    C193    C    0.40846   0.48744   0.19373   1.000
    C194    C    0.90850   0.48822   0.19412   1.000
    C195    C    0.37527   0.54272   0.17160   1.000
    C196    C    0.87504   0.54291   0.17149   1.000
    C197    C    0.31224   0.54451   0.17177   1.000
    C198    C    0.81203   0.54441   0.17160   1.000
    C199    C    0.47649   0.48522   0.19273   1.000
    C200    C    0.97650   0.48650   0.19292   1.000
    C201    C    0.09067   0.61443   0.30733   1.000
    C202    C    0.59047   0.61508   0.30636   1.000
    C203    C    0.08286   0.68110   0.37484   1.000
    C204    C    0.58274   0.68146   0.37411   1.000
    C205    C    0.08170   0.66554   0.43719   1.000
    C206    C    0.58134   0.66550   0.43627   1.000
    C207    C    0.07381   0.72747   0.49960   1.000
    N208    N    0.85500   0.74816   0.56868   1.000
    N209    N    0.39279   0.63372   0.71270   1.000
    N210    N    0.89310   0.63370   0.71282   1.000
    O211    O    0.08028   0.35517   0.12312   1.000
    O212    O    0.58130   0.35532   0.12266   1.000
    O213    O    0.10157   0.44392   0.07099   1.000
    O214    O    0.60227   0.44396   0.07026   1.000
    O215    O    0.08544   0.04529   0.80510   1.000
    C216    C    0.56941   0.82196   0.43845   1.000
    C217    C    0.07603   0.75965   0.37609   1.000
    C218    C    0.57620   0.76020   0.37570   1.000
    C219    C    0.06224   0.87363   0.56849   1.000
    C220    C    0.56204   0.87332   0.56830   1.000
    C221    C    0.08646   0.59671   0.02889   1.000
    C222    C    0.58627   0.59675   0.02838   1.000
    C223    C    0.07610   0.64446   0.98886   1.000
    C224    C    0.57562   0.64458   0.98847   1.000
    C225    C    0.06474   0.72584   0.02219   1.000
    C226    C    0.56404   0.72588   0.02191   1.000
    C227    C    0.06810   0.75598   0.09536   1.000
    C228    C    0.56753   0.75588   0.09508   1.000
    C229    C    0.07877   0.70409   0.13123   1.000
    C230    C    0.57850   0.70394   0.13084   1.000
    C231    C    0.04483   0.78382   0.87232   1.000
    C232    C    0.54418   0.78403   0.87223   1.000
    C233    C    0.08657   0.84752   0.89090   1.000
    C234    C    0.58606   0.84759   0.89104   1.000
    C235    C    0.09497   0.88641   0.84444   1.000
    C236    C    0.59484   0.88643   0.84458   1.000
    C237    C    0.02640   0.80378   0.76268   1.000
    C238    C    0.52635   0.80406   0.76253   1.000
    C239    C    0.01518   0.76138   0.80549   1.000
    C240    C    0.51474   0.76174   0.80530   1.000
    C241    C    0.18479   0.98792   0.68699   1.000
    C242    C    0.68484   0.98745   0.68576   1.000
    C243    C    0.25279   0.98949   0.68608   1.000
    C244    C    0.75285   0.98918   0.68487   1.000
    C245    C    0.28896   0.94383   0.71651   1.000
    C246    C    0.78898   0.94375   0.71559   1.000
    C247    C    0.35193   0.94713   0.71696   1.000
    C248    C    0.85195   0.94715   0.71620   1.000
    C249    C    0.37980   0.99550   0.68616   1.000
    C250    C    0.87993   0.99537   0.68539   1.000
    C251    C    0.34356   0.04044   0.65507   1.000
    C252    C    0.84376   0.04005   0.65397   1.000
    C253    C    0.28066   0.03788   0.65545   1.000
    C254    C    0.78082   0.03740   0.65414   1.000
    C255    C    0.44778   0.99880   0.68635   1.000
    C256    C    0.94795   0.99863   0.68600   1.000
    C257    C    0.07632   0.10061   0.52707   1.000
    C258    C    0.57615   0.10039   0.52670   1.000
    C259    C    0.09199   0.14971   0.49127   1.000
    C260    C    0.59219   0.14937   0.49098   1.000
    C261    C    0.10490   0.23008   0.52800   1.000
    C262    C    0.60540   0.22965   0.52863   1.000
    C263    C    0.09930   0.25806   0.60120   1.000
    C264    C    0.59982   0.25763   0.60096   1.000
    C265    C    0.08320   0.20493   0.63259   1.000
    C266    C    0.58335   0.20462   0.63229   1.000
    C267    C    0.13133   0.28916   0.38396   1.000
    C268    C    0.63175   0.28892   0.38379   1.000
    C269    C    0.57256   0.37893   0.34210   1.000
    C270    C    0.08220   0.34212   0.39077   1.000
    C271    C    0.58271   0.34207   0.39089   1.000
    C272    C    0.40787   0.62581   0.93038   1.000
    C273    C    0.90873   0.62586   0.92984   1.000
    C274    C    0.40832   0.69234   0.99920   1.000
    C275    C    0.90919   0.69227   0.99880   1.000
    C276    C    0.40063   0.77152   0.00237   1.000
    C277    C    0.90174   0.77153   0.00203   1.000
    C278    C    0.40413   0.83347   0.06618   1.000
    C279    C    0.90524   0.83340   0.06500   1.000
    C280    C    0.41574   0.81750   0.12801   1.000
    C281    C    0.91667   0.81729   0.12769   1.000
    C282    C    0.42218   0.73826   0.12485   1.000
    C283    C    0.92283   0.73798   0.12442   1.000
    C284    C    0.41821   0.67623   0.06114   1.000
    C285    C    0.91885   0.67603   0.06066   1.000
    C286    C    0.42264   0.88517   0.19647   1.000
    C287    C    0.92358   0.88487   0.19623   1.000
    C288    C    0.28721   0.50895   0.80745   1.000
    C289    C    0.78721   0.50871   0.80771   1.000
    C290    C    0.21904   0.50968   0.80640   1.000
    C291    C    0.71905   0.50996   0.80670   1.000
    C292    C    0.18563   0.56458   0.78396   1.000
    C293    C    0.68589   0.56539   0.78473   1.000
    C294    C    0.12255   0.56527   0.78320   1.000
    C295    C    0.62281   0.56642   0.78397   1.000
    C296    C    0.09169   0.51172   0.80592   1.000
    C297    C    0.59169   0.51266   0.80621   1.000
    C298    C    0.12514   0.45703   0.82856   1.000
    C299    C    0.62488   0.45739   0.82835   1.000
    C300    C    0.18816   0.45554   0.82836   1.000
    C301    C    0.68790   0.45560   0.82818   1.000
    C302    C    0.02370   0.51347   0.80700   1.000
    C303    C    0.52368   0.51486   0.80723   1.000
    C304    C    0.40960   0.38495   0.69362   1.000
    C305    C    0.90939   0.38559   0.69269   1.000
    C306    C    0.41727   0.31855   0.62586   1.000
    C307    C    0.91717   0.31892   0.62516   1.000
    C308    C    0.41867   0.33451   0.56371   1.000
    C309    C    0.91832   0.33449   0.56282   1.000
    C310    C    0.42650   0.27282   0.50111   1.000
    C311    C    0.92620   0.27256   0.50039   1.000
    C312    C    0.43205   0.19392   0.49940   1.000
    C313    C    0.93194   0.19383   0.49907   1.000
    C314    C    0.43060   0.17806   0.56153   1.000
    C315    C    0.93070   0.17834   0.56138   1.000
    C316    C    0.42382   0.23982   0.62420   1.000
    C317    C    0.92398   0.24036   0.62390   1.000
    C318    C    0.43798   0.12670   0.43168   1.000
    C319    C    0.93777   0.12640   0.43151   1.000
    C320    C    0.41386   0.40328   0.97162   1.000
    C321    C    0.91360   0.40332   0.97112   1.000
    C322    C    0.42442   0.35543   0.01152   1.000
    C323    C    0.92396   0.35557   0.01114   1.000
    C324    C    0.43599   0.27413   0.97808   1.000
    C325    C    0.93532   0.27419   0.97782   1.000
    C326    C    0.43250   0.24412   0.90491   1.000
    C327    C    0.93195   0.24405   0.90465   1.000
    C328    C    0.42162   0.29608   0.86915   1.000
    C329    C    0.92128   0.29594   0.86870   1.000
    C330    C    0.45585   0.21599   0.12777   1.000
    C331    C    0.95522   0.21623   0.12769   1.000
    C332    C    0.41396   0.15243   0.10896   1.000
    C333    C    0.91348   0.15253   0.10906   1.000
    C334    C    0.40518   0.11359   0.15542   1.000
    C335    C    0.90507   0.11364   0.15556   1.000
    C336    C    0.47368   0.19597   0.23740   1.000
    C337    C    0.97363   0.19627   0.23730   1.000
    C338    C    0.48528   0.23829   0.19470   1.000
    C339    C    0.98486   0.23866   0.19452   1.000
    C340    C    0.31517   0.01257   0.31423   1.000
    C341    C    0.81523   0.01211   0.31300   1.000
    C342    C    0.24716   0.01085   0.31513   1.000
    C343    C    0.74723   0.01053   0.31390   1.000
    C344    C    0.21103   0.05627   0.28440   1.000
    C345    C    0.71106   0.05619   0.28348   1.000
    C346    C    0.14806   0.05288   0.28374   1.000
    C347    C    0.64808   0.05288   0.28303   1.000
    C348    C    0.12009   0.00465   0.31461   1.000
    C349    C    0.62022   0.00452   0.31383   1.000
    C350    C    0.15626   0.95998   0.34603   1.000
    C351    C    0.65646   0.95959   0.34490   1.000
    C352    C    0.21919   0.96263   0.34580   1.000
    C353    C    0.71936   0.96214   0.34454   1.000
    C354    C    0.05206   0.00140   0.31400   1.000
    C355    C    0.55224   0.00121   0.31365   1.000
    C356    C    0.42387   0.89963   0.47324   1.000
    C357    C    0.92369   0.89942   0.47294   1.000
    C358    C    0.40784   0.85065   0.50901   1.000
    C359    C    0.90802   0.85032   0.50874   1.000
    C360    C    0.39462   0.77037   0.47135   1.000
    C361    C    0.89512   0.76994   0.47111   1.000
    C362    C    0.40021   0.74239   0.39903   1.000
    C363    C    0.90072   0.74197   0.39879   1.000
    C364    C    0.41668   0.79540   0.36769   1.000
    C365    C    0.91681   0.79510   0.36741   1.000
    C366    C    0.36829   0.71110   0.61619   1.000
    C367    C    0.86874   0.71083   0.61604   1.000
    C368    C    0.33275   0.72541   0.67409   1.000
    C369    C    0.83305   0.72512   0.67382   1.000
    C370    C    0.34630   0.68576   0.72010   1.000
    C371    C    0.84654   0.68560   0.71990   1.000
    C372    C    0.42749   0.62110   0.65788   1.000
    C373    C    0.92797   0.62113   0.65800   1.000
    C374    C    0.41732   0.65796   0.60900   1.000
    C375    C    0.91789   0.65790   0.60919   1.000
    N376    N    0.08686   0.62479   0.09909   1.000
    N377    N    0.58675   0.62469   0.09859   1.000
    N378    N    0.05018   0.77702   0.98605   1.000
    N379    N    0.54920   0.77711   0.98591   1.000
    N380    N    0.03187   0.74339   0.91569   1.000
    N381    N    0.53094   0.74362   0.91553   1.000
    N382    N    0.06532   0.86636   0.78124   1.000
    N383    N    0.56545   0.86646   0.78125   1.000
    N384    N    0.07242   0.12681   0.59674   1.000
    N385    N    0.57218   0.12660   0.59641   1.000
    N386    N    0.12263   0.28282   0.49722   1.000
    N387    N    0.62339   0.28233   0.49700   1.000
    N388    N    0.14503   0.25185   0.43134   1.000
    N389    N    0.64552   0.25137   0.43100   1.000
    N390    N    0.10710   0.36632   0.28710   1.000
    N391    N    0.60727   0.36631   0.28721   1.000
    N392    N    0.41345   0.37535   0.90141   1.000
    N393    N    0.91319   0.37523   0.90091   1.000
    N394    N    0.45082   0.22290   0.01409   1.000
    N395    N    0.94988   0.22301   0.01396   1.000
    N396    N    0.46908   0.25640   0.08446   1.000
    N397    N    0.96819   0.25665   0.08432   1.000
    N398    N    0.43458   0.13356   0.21875   1.000
    N399    N    0.93471   0.13368   0.21876   1.000
    N400    N    0.42784   0.87342   0.40358   1.000
    N401    N    0.92759   0.87322   0.40326   1.000
    N402    N    0.37664   0.71769   0.50297   1.000
    N403    N    0.87738   0.71720   0.50270   1.000
    N404    N    0.35451   0.74864   0.56898   1.000
    O405    O    0.58640   0.04502   0.80493   1.000
    O406    O    0.06134   0.13333   0.75031   1.000
    O407    O    0.56227   0.13294   0.75002   1.000
    O408    O    0.18723   0.43681   0.20795   1.000
    O409    O    0.68757   0.43665   0.20872   1.000
    O410    O    0.18607   0.54604   0.17582   1.000
    O411    O    0.68583   0.54531   0.17576   1.000
    O412    O    0.50095   0.52006   0.15650   1.000
    O413    O    0.00000   0.52053   0.15570   1.000
    O414    O    0.50430   0.44735   0.22803   1.000
    O415    O    0.00000   0.44999   0.22903   1.000
    O416    O    0.10406   0.54600   0.31000   1.000
    O417    O    0.60268   0.54615   0.30869   1.000
    O418    O    0.08281   0.63156   0.25212   1.000
    O419    O    0.58376   0.63286   0.25140   1.000
    O420    O    0.05404   0.85583   0.62230   1.000
    O421    O    0.55489   0.85528   0.62221   1.000
    O422    O    0.06665   0.94375   0.56665   1.000
    O423    O    0.56531   0.94357   0.56647   1.000
    O424    O    0.16140   0.93479   0.70621   1.000
    O425    O    0.66170   0.93464   0.70562   1.000
    O426    O    0.15619   0.04017   0.66857   1.000
    O427    O    0.65596   0.03909   0.66681   1.000
    O428    O    0.47779   0.96432   0.72253   1.000
    O429    O    0.97755   0.96460   0.72288   1.000
    O430    O    0.46984   0.03547   0.64980   1.000
    O431    O    0.97052   0.03462   0.64924   1.000
    O432    O    0.41875   0.64474   0.87733   1.000
    O433    O    0.91982   0.64486   0.87689   1.000
    O434    O    0.39791   0.55607   0.92973   1.000
    O435    O    0.89849   0.55610   0.92899   1.000
    O436    O    0.41361   0.95501   0.19506   1.000
    O437    O    0.91458   0.95475   0.19489   1.000
    O438    O    0.43775   0.86709   0.24997   1.000
    O439    O    0.93868   0.86670   0.24960   1.000
    O440    O    0.31252   0.56339   0.79126   1.000
    O441    O    0.81301   0.56314   0.79195   1.000
    O442    O    0.31446   0.45480   0.82433   1.000
    O443    O    0.81401   0.45400   0.82420   1.000
    O444    O    0.99973   0.47947   0.84420   1.000
    O445    O    0.49931   0.47999   0.84352   1.000
    O446    O    0.99540   0.55003   0.77096   1.000
    O447    O    0.49577   0.55267   0.77197   1.000
    O448    O    0.39737   0.45387   0.69130   1.000
    O449    O    0.89605   0.45404   0.68997   1.000
    O450    O    0.41638   0.36717   0.74857   1.000
    O451    O    0.91724   0.36843   0.74789   1.000
    O452    O    0.44513   0.14474   0.37778   1.000
    O453    O    0.94597   0.14421   0.37770   1.000
    O454    O    0.43471   0.05645   0.43352   1.000
    O455    O    0.93336   0.05628   0.43334   1.000
    O456    O    0.33831   0.06539   0.29430   1.000
    O457    O    0.83862   0.06524   0.29379   1.000
    O458    O    0.34405   0.96093   0.33318   1.000
    O459    O    0.84384   0.95986   0.33143   1.000
    O460    O    0.02246   0.03543   0.27712   1.000
    O461    O    0.52223   0.03569   0.27740   1.000
    O462    O    0.02949   0.96540   0.35075   1.000
    O463    O    0.53018   0.96454   0.35019   1.000
loop_
    _geom_bond_atom_site_label_1
    _geom_bond_atom_site_label_2
    _geom_bond_distance
    _geom_bond_site_symmetry_2
    _ccdc_geom_bond_type
    C172   C170      1.50053      .   S
    C172   C182      1.40257  1_554   S
    C172   C174      1.40371  1_554   S
    C171   C169      1.50075      .   S
    C171   C181      1.40198  1_554   S
    C171   C173      1.40378  1_554   S
    C277   C279      1.37986      .   S
    C277   H89       1.09007  1_554   S
    C277   C275      1.40372  1_554   S
    C276   C278      1.39192      .   S
    C276   H88       1.09007  1_554   S
    C276   C274      1.40328  1_554   S
    H41    C222      1.08873      .   S
    H40    C221      1.08872      .   S
    C323   H119      1.08607      .   S
    C323   C321      1.38397  1_554   S
    C323   C325      1.40322  1_554   S
    C322   H118      1.08592      .   S
    C322   C320      1.38397  1_554   S
    C322   C324      1.40323  1_554   S
    H81    N379      1.02638  1_554   S
    H80    N378      1.02657  1_554   S
    N395   N397      1.39696      .   S
    N395   C325      1.38752  1_554   S
    N395   H162      1.02657  1_554   S
    N394   N396      1.39665      .   S
    N394   C324      1.38744  1_554   S
    N394   H161      1.02646  1_554   S
    C226   C228      1.40786      .   S
    C226   N379      1.38734  1_554   S
    C226   C224      1.40321  1_554   S
    C225   C227      1.40790      .   S
    C225   N378      1.38759  1_554   S
    C225   C223      1.40325  1_554   S
    C222   N377      1.35241      .   S
    C222   C224      1.38416  1_554   S
    C221   N376      1.35231      .   S
    C221   C223      1.38418  1_554   S
    H16    C174      1.09007  1_554   S
    H15    C173      1.09008  1_554   S
    H95    C285      1.08870      .   S
    H94    C284      1.08872      .   S
    H124   C332      1.08786      .   S
    H125   C333      1.08778      .   S
    C285   C283      1.39145      .   S
    C285   C275      1.40215  1_554   S
    C284   C282      1.39144      .   S
    C284   C274      1.40300  1_554   S
    C279   H91       1.08444      .   S
    C279   C281      1.42154      .   S
    C278   H90       1.08946      .   S
    C278   C280      1.40371      .   S
    C170   O214      1.26628      .   S
    C170   O212      1.28426      .   S
    C169   O213      1.26641      .   S
    C169   O211      1.28406      .   S
    O214   Zn2       2.08984      .   S
    O213   Zn1       2.08736      .   S
    N397   H164      0.90091  1_655   S
    N397   C331      1.37198      .   S
    N396   H163      1.03950      .   S
    N396   C330      1.37218      .   S
    C228   H45       1.08983      .   S
    C228   C230      1.38058      .   S
    C227   H44       1.08980      .   S
    C227   C229      1.38056      .   S
    N377   C230      1.35549      .   S
    N377   Zn2       2.04089      .   S
    N376   C229      1.35536      .   S
    N376   Zn1       2.04044      .   S
    C332   C330      1.41004      .   S
    C332   C334      1.38459      .   S
    C333   C331      1.41001      .   S
    C333   C335      1.38445      .   S
    O212   Zn0       2.15156      .   S
    O211   Zn32      2.15786      .   S
    C283   C281      1.40184      .   S
    C283   H93       1.08889      .   S
    C282   C280      1.40185      .   S
    C282   H92       1.08896      .   S
    C331   C339      1.41253      .   S
    C281   C287      1.50646      .   S
    C330   C338      1.41252      .   S
    C280   C286      1.50618      .   S
    C230   H47       1.08906      .   S
    C229   H46       1.08911      .   S
    H126   C334      1.09012      .   S
    H127   C335      1.09014      .   S
    H28    C196      1.08820      .   S
    Zn2    O412      2.12319      .   S
    Zn2    O411      2.07146      .   S
    Zn2    O419      2.05377      .   S
    H27    C195      1.08815      .   S
    H30    C198      1.08830      .   S
    Zn1    O413      2.13485      .   S
    Zn1    O410      2.07698      .   S
    Zn1    O418      2.05040      .   S
    H29    C197      1.08920      .   S
    C334   N398      1.35187      .   S
    C335   N399      1.35192      .   S
    O413   C200      1.26683  1_455   S
    O412   C199      1.27080      .   S
    C196   C198      1.39168      .   S
    C196   C194      1.40322      .   S
    C198   C188      1.40434      .   S
    C195   C197      1.39207      .   S
    C195   C193      1.40312      .   S
    C197   C187      1.40359      .   S
    O411   C186      1.26868      .   S
    O410   C185      1.26832      .   S
    C185   C187      1.50417      .   S
    C185   O408      1.27983      .   S
    C186   C188      1.50417      .   S
    C186   O409      1.27928      .   S
    C199   C193      1.50350      .   S
    C199   O414      1.27873      .   S
    C200   C194      1.50332      .   S
    C200   O415      1.23466  1_655   S
    C187   C189      1.40315      .   S
    C188   C190      1.40342      .   S
    C193   C191      1.40385      .   S
    C194   C192      1.40370      .   S
    C339   H130      1.08703  1_655   S
    C339   C337      1.37952      .   S
    C338   H131      1.08713      .   S
    C338   C336      1.37899      .   S
    O437   C287      1.27199      .   S
    O437   Zn12      2.10097  1_565   S
    O436   C286      1.27194      .   S
    O436   Zn11      2.09972  1_565   S
    C287   O439      1.27215      .   S
    C286   O438      1.27385      .   S
    O408   Zn32      2.03856      .   S
    O409   Zn0       2.04685      .   S
    C189   C191      1.39239      .   S
    C189   H23       1.08911      .   S
    C191   H25       1.08936      .   S
    C190   C192      1.39261      .   S
    C190   H24       1.08908      .   S
    C192   H26       1.08953      .   S
    N398   C336      1.35545      .   S
    N398   Zn11      2.04684      .   S
    N399   C337      1.35540      .   S
    N399   Zn12      2.04674      .   S
    Zn0    O414      2.06111      .   S
    Zn0    N391      2.06552      .   S
    Zn0    O417      2.07988      .   S
    Zn32   O415      2.16555      .   S
    Zn32   N390      2.06235      .   S
    Zn32   O416      2.08305      .   S
    H75    C135      1.08816      .   S
    H74    C134      1.08972      .   S
    C337   H129      1.09083      .   S
    C336   H128      1.09030      .   S
    O439   Zn14      2.09043      .   S
    O438   Zn13      2.08572      .   S
    O419   C202      1.27471      .   S
    O418   C201      1.27507      .   S
    H140   C347      1.08965      .   S
    H139   C346      1.08964      .   S
    H138   C345      1.09004      .   S
    H137   C344      1.08997      .   S
    O460   Zn12      2.08086  1_455   S
    O460   C354      1.27232      .   S
    O461   Zn11      2.09276      .   S
    O461   C355      1.27270      .   S
    Zn12   O457      2.07067      .   S
    Zn12   O453      2.08016      .   S
    Zn11   O456      2.06128      .   S
    Zn11   O452      2.08173      .   S
    C135   N391      1.35350      .   S
    C135   C133      1.38316      .   S
    C134   N390      1.35374      .   S
    C134   C132      1.38172      .   S
    C347   C345      1.39253      .   S
    C347   C349      1.40412      .   S
    C345   C343      1.40277      .   S
    C346   C344      1.39225      .   S
    C346   C348      1.40428      .   S
    C344   C342      1.40312      .   S
    N390   C136      1.35432      .   S
    N391   C269      1.35281      .   S
    O457   C341      1.27564      .   S
    O456   C340      1.27724      .   S
    C202   O417      1.27427      .   S
    C202   C204      1.50103      .   S
    C201   O416      1.27331      .   S
    C201   C203      1.50050      .   S
    H152   C365      1.08909      .   S
    H151   C364      1.08906      .   S
    C341   C343      1.50386      .   S
    C341   O459      1.26991  1_545   S
    C355   C349      1.50346      .   S
    C355   O463      1.27544  1_545   S
    C349   C351      1.40235  1_545   S
    C343   C353      1.40233  1_545   S
    C354   C348      1.50376      .   S
    C354   O462      1.27506  1_545   S
    C340   C342      1.50437      .   S
    C340   O458      1.26932  1_545   S
    C348   C350      1.40271  1_545   S
    C342   C352      1.40139  1_545   S
    H73    C133      1.08966      .   S
    H72    C132      1.08966      .   S
    C133   C268      1.41027      .   S
    C132   C267      1.41022      .   S
    H39    C218      1.08718      .   S
    H38    C217      1.08894      .   S
    O459   Zn14      2.07751      .   S
    O458   Zn13      2.08753      .   S
    C136   H76       1.09038      .   S
    C136   C270      1.38399      .   S
    C269   H77       1.09036      .   S
    C269   C271      1.38416      .   S
    C353   C351      1.39136      .   S
    C353   H144      1.08894      .   S
    C351   H142      1.08888      .   S
    C352   C350      1.39201      .   S
    C352   H143      1.08971      .   S
    C350   H141      1.08861      .   S
    Zn14   O462      2.07349  1_655   S
    Zn14   N401      2.04885      .   S
    Zn14   O455      2.07233  1_565   S
    O463   Zn13      2.07064      .   S
    Zn13   N400      2.04944      .   S
    Zn13   O454      2.07053  1_565   S
    H150   C363      1.09059      .   S
    H149   C362      1.09059      .   S
    C365   C363      1.38158      .   S
    C365   N401      1.35293      .   S
    C364   C362      1.38164      .   S
    C364   N400      1.35296      .   S
    C204   C218      1.40288      .   S
    C204   C206      1.40368      .   S
    C203   C217      1.40240      .   S
    C203   C205      1.40344      .   S
    C218   C216      1.39132      .   S
    C217   C103      1.39028      .   S
    O453   C319      1.27503      .   S
    O452   C318      1.27473      .   S
    C268   C271      1.40897      .   S
    C268   N389      1.37599      .   S
    C267   C270      1.40899      .   S
    C267   N388      1.37576      .   S
    C270   H78       1.08708      .   S
    C271   H79       1.08799      .   S
    C363   C361      1.40618      .   S
    C362   C360      1.40612      .   S
    N401   C357      1.35069      .   S
    N400   C356      1.35049      .   S
    H87    N389      1.02492      .   S
    H86    N388      1.02489      .   S
    N389   N387      1.39024      .   S
    N388   N386      1.39054      .   S
    C319   O455      1.27368      .   S
    C319   C313      1.50148      .   S
    C318   O454      1.27391      .   S
    C318   C312      1.50209      .   S
    H33    C206      1.08965      .   S
    H67    C260      1.08669      .   S
    H66    C259      1.08661      .   S
    H31    C205      1.08972      .   S
    C206   C100      1.39233      .   S
    C205   C207      1.39201      .   S
    C216   H37       1.08838      .   S
    C216   C102      1.40225      .   S
    C103   H36       1.08798      .   S
    C103   C101      1.40162      .   S
    H111   C311      1.08979      .   S
    H110   C310      1.08996      .   S
    H166   N403      1.02442      .   S
    H165   N402      1.02504      .   S
    C361   N403      1.38995      .   S
    C361   C359      1.40187      .   S
    C360   N402      1.39127      .   S
    C360   C358      1.40183      .   S
    C357   H146      1.08873      .   S
    C357   C359      1.38574      .   S
    C356   H145      1.08871      .   S
    C356   C358      1.38597      .   S
    C260   C258      1.38517      .   S
    C260   C262      1.40180      .   S
    C259   C257      1.38574      .   S
    C259   C261      1.39856      .   S
    N387   C262      1.39140      .   S
    N387   H85       1.02511      .   S
    N386   C261      1.37801      .   S
    N386   H84       1.02505      .   S
    C100   C102      1.40331      .   S
    C100   H35       1.08976      .   S
    C313   C311      1.40322      .   S
    C313   C315      1.40208      .   S
    H65    C258      1.08856      .   S
    C312   C310      1.40328      .   S
    C312   C314      1.40226      .   S
    H64    C257      1.08876      .   S
    C207   C101      1.40329      .   S
    C207   H34       1.09014      .   S
    C311   C309      1.39222      .   S
    C102   C220      1.50208      .   S
    C101   C219      1.50190      .   S
    C310   C308      1.39233      .   S
    N403   N208      1.39211      .   S
    N402   N404      1.39041      .   S
    C359   H148      1.08661      .   S
    C358   H147      1.08650      .   S
    C258   N385      1.35145      .   S
    C257   N384      1.35049      .   S
    C261   C263      1.42315      .   S
    C262   C264      1.40631      .   S
    H112   C314      1.08788      .   S
    H113   C315      1.08803      .   S
    C315   C317      1.39023      .   S
    C314   C316      1.39022      .   S
    C309   H109      1.08970      .   S
    C309   C307      1.40330      .   S
    C308   H108      1.08972      .   S
    C308   C306      1.40347      .   S
    H159   C374      1.08662      .   S
    H160   C375      1.08796      .   S
    O423   C220      1.27386      .   S
    O423   Zn6       2.07059  1_565   S
    O422   C219      1.27374      .   S
    O422   Zn5       2.07229  1_565   S
    C220   O421      1.27492      .   S
    C219   O420      1.27501      .   S
    N208   H168      1.02490      .   S
    N208   C367      1.37569      .   S
    N404   H167      1.02490      .   S
    N404   C366      1.37596      .   S
    N385   C266      1.35294      .   S
    N385   Zn6       2.04943      .   S
    N384   C265      1.35292      .   S
    N384   Zn5       2.04870      .   S
    C264   C266      1.38146      .   S
    C264   H69       1.09060      .   S
    C263   C265      1.38174      .   S
    C263   H68       1.09065      .   S
    C374   C366      1.40883      .   S
    C374   C372      1.38574      .   S
    C375   C367      1.40897      .   S
    C375   C373      1.38303      .   S
    C367   C369      1.41036      .   S
    C366   C368      1.41021      .   S
    O421   Zn4       2.08177      .   S
    O420   Zn3       2.08004      .   S
    C317   C307      1.40238      .   S
    C317   H115      1.08878      .   S
    C316   C306      1.40242      .   S
    C316   H114      1.08875      .   S
    C307   C305      1.50063      .   S
    C306   C304      1.50106      .   S
    H61    C252      1.08860      .   S
    H63    C254      1.08911      .   S
    H60    C251      1.08974      .   S
    C266   H71       1.08925      .   S
    H62    C253      1.08889      .   S
    C265   H70       1.08928      .   S
    O431   Zn5       2.07354  1_655   S
    O431   C256      1.27514  1_545   S
    Zn6    O430      2.07060      .   S
    Zn6    O427      2.08748      .   S
    Zn6    O407      2.08578      .   S
    O430   C255      1.27561  1_545   S
    Zn5    O426      2.07760      .   S
    Zn5    O406      2.08925      .   S
    C252   C254      1.39195      .   S
    C252   C250      1.40275  1_545   S
    H157   C372      1.09038      .   S
    C254   C244      1.40224  1_545   S
    H158   C373      1.09044      .   S
    C251   C253      1.39139      .   S
    C251   C249      1.40265  1_545   S
    C253   C243      1.40219  1_545   S
    C372   N209      1.35153      .   S
    C373   N210      1.35384      .   S
    O427   C242      1.26935  1_545   S
    O426   C241      1.26986  1_545   S
    C369   H154      1.08968      .   S
    C369   C371      1.38108      .   S
    C368   H153      1.08965      .   S
    C368   C370      1.38174      .   S
    C244   C242      1.50437      .   S
    C244   C246      1.40305      .   S
    C250   C256      1.50377      .   S
    C250   C248      1.40344      .   S
    C242   O425      1.27629      .   S
    C256   O429      1.27235      .   S
    C243   C241      1.50388      .   S
    C243   C245      1.40295      .   S
    C249   C255      1.50345      .   S
    C249   C247      1.40412      .   S
    C255   O428      1.27176      .   S
    C241   O424      1.27575      .   S
    O449   C305      1.27387      .   S
    O449   Zn8       2.08408      .   S
    O448   C304      1.27422      .   S
    O448   Zn7       2.07946      .   S
    C305   O451      1.27510      .   S
    C304   O450      1.27457      .   S
    O425   Zn4       2.06155      .   S
    O424   Zn3       2.07062      .   S
    H53    C238      1.09085      .   S
    H52    C237      1.09019      .   S
    N209   C370      1.35350      .   S
    N209   Zn7       2.06596      .   S
    N210   C371      1.35367      .   S
    N210   Zn8       2.06422      .   S
    C246   C248      1.39230      .   S
    C246   H57       1.08997      .   S
    C248   H59       1.09032      .   S
    C245   C247      1.39253      .   S
    C245   H56       1.09005      .   S
    C247   H58       1.08972      .   S
    C371   H156      1.09032      .   S
    C370   H155      1.08967      .   S
    Zn4    O428      2.09270      .   S
    Zn4    N383      2.04696      .   S
    Zn4    O405      2.09983  1_565   S
    Zn3    O429      2.08088  1_455   S
    Zn3    N382      2.04673      .   S
    Zn3    O215      2.10095  1_565   S
    O451   Zn10      2.05009      .   S
    O450   Zn9       2.05343      .   S
    O407   C184      1.27384      .   S
    O406   C183      1.27388      .   S
    C238   N383      1.35538      .   S
    C238   C240      1.38018      .   S
    C237   N382      1.35538      .   S
    C237   C239      1.37995      .   S
    H98    C294      1.08992      .   S
    H99    C295      1.09010      .   S
    H96    C292      1.08903      .   S
    H97    C293      1.08911      .   S
    O446   Zn8       2.05410      .   S
    O446   C302      1.27789  1_655   S
    O447   Zn7       2.06211      .   S
    O447   C303      1.27832      .   S
    Zn8    O441      2.04287      .   S
    Zn8    O433      2.15630      .   S
    Zn7    O440      2.04549      .   S
    Zn7    O432      2.15261      .   S
    N382   C235      1.35199      .   S
    N383   C236      1.35189      .   S
    C294   C292      1.39250      .   S
    C294   C296      1.40361      .   S
    C292   C290      1.40340      .   S
    C295   C293      1.39246      .   S
    C295   C297      1.40386      .   S
    C293   C291      1.40321      .   S
    H54    C240      1.08713      .   S
    H55    C239      1.08702  1_655   S
    O440   C288      1.27960      .   S
    O441   C289      1.27967      .   S
    C184   O405      1.27192      .   S
    C184   C178      1.50619      .   S
    C183   O215      1.27194      .   S
    C183   C177      1.50632      .   S
    C240   C232      1.41254      .   S
    C239   C231      1.41260      .   S
    C296   C302      1.50295      .   S
    C296   C298      1.40326      .   S
    C297   C303      1.50323      .   S
    C297   C299      1.40311      .   S
    C290   C288      1.50444      .   S
    C290   C300      1.40332      .   S
    C291   C289      1.50445      .   S
    C291   C301      1.40361      .   S
    C302   O444      1.27084  1_455   S
    C303   O445      1.27124      .   S
    C288   O442      1.26836      .   S
    C289   O443      1.26841      .   S
    H123   C329      1.08774      .   S
    H122   C328      1.08907      .   S
    O443   Zn10      2.07571      .   S
    O442   Zn9       2.07825      .   S
    H20    C180      1.08891      .   S
    H19    C179      1.08892      .   S
    C301   C299      1.39201      .   S
    C301   H107      1.08915      .   S
    C299   H105      1.08816      .   S
    C300   C298      1.39189      .   S
    C300   H106      1.08920      .   S
    C298   H104      1.08811      .   S
    O445   Zn9       2.11542      .   S
    O444   Zn10      2.12873      .   S
    C235   H50       1.09014      .   S
    C235   C233      1.38370      .   S
    C236   H51       1.09012      .   S
    C236   C234      1.38458      .   S
    Zn10   N393      2.04042      .   S
    Zn10   O435      2.08751      .   S
    Zn9    N392      2.04073      .   S
    Zn9    O434      2.09013      .   S
    C329   N393      1.35556      .   S
    C329   C327      1.38176      .   S
    C328   N392      1.35551      .   S
    C328   C326      1.38054      .   S
    C178   C180      1.40185      .   S
    C178   C176      1.40368      .   S
    C232   C234      1.41003      .   S
    C232   N381      1.37211      .   S
    C177   C179      1.40184      .   S
    C177   C175      1.40393      .   S
    C231   C233      1.41004      .   S
    C231   N380      1.37197      .   S
    C180   C182      1.39079      .   S
    C179   C181      1.39145      .   S
    H121   C327      1.08980      .   S
    H120   C326      1.08979      .   S
    O433   C273      1.28415      .   S
    O432   C272      1.28432      .   S
    C233   H48       1.08852      .   S
    C234   H49       1.08771      .   S
    N393   C321      1.35251      .   S
    N392   C320      1.35249      .   S
    H83    N381      1.03954      .   S
    H82    N380      1.03974  1_655   S
    C327   C325      1.40790      .   S
    C326   C324      1.40786      .   S
    N381   N379      1.39678      .   S
    N380   N378      1.39696      .   S
    O435   C273      1.26631      .   S
    O434   C272      1.26623      .   S
    C273   C275      1.50052      .   S
    C272   C274      1.49959      .   S
    H18    C176      1.08945      .   S
    H17    C175      1.08944      .   S
    H43    C224      1.08589      .   S
    H42    C223      1.08588      .   S
    C176   C174      1.39195      .   S
    C175   C173      1.39193      .   S
    C182   H22       1.09262      .   S
    C181   H21       1.08865      .   S
    C321   H117      1.08872      .   S
    C320   H116      1.08872      .   S
    Zn32   Zn1       2.87499      .   S
    Zn0    Zn2       2.88099      .   S
    Zn3    Zn5       2.88166  1_565   S
    Zn4    Zn6       2.88514  1_565   S
    Zn7    Zn9       2.88167      .   S
    Zn8    Zn10      2.87481      .   S
    Zn11   Zn13      2.88512  1_545   S
    Zn12   Zn14      2.88179  1_545   S
