# CIF file generated by openbabel 2.4.90, see http://openbabel.sf.net
data_I
_chemical_name_common ''
_cell_length_a 22.087
_cell_length_b 17.892
_cell_length_c 20.541
_cell_angle_alpha 110.258
_cell_angle_beta 93.396
_cell_angle_gamma 89.007
_space_group_name_H-M_alt 'P 1'
_space_group_name_Hall 'P 1'
loop_
    _symmetry_equiv_pos_as_xyz
    x,y,z
loop_
    _atom_site_label
    _atom_site_type_symbol
    _atom_site_fract_x
    _atom_site_fract_y
    _atom_site_fract_z
    _atom_site_occupancy
    N0      N    0.58664   0.24485   0.93647   1.000
    N1      N    0.08577   0.24497   0.93691   1.000
    N2      N    0.65543   0.51164   0.80691   1.000
    N3      N    0.15543   0.51107   0.80665   1.000
    N4      N    0.42439   0.25602   0.56271   1.000
    N5      N    0.92424   0.25618   0.56218   1.000
    N6      N    0.84443   0.48890   0.19337   1.000
    N7      N    0.94030   0.24779   0.05464   1.000
    N8      N    0.38876   0.74415   0.54752   1.000
    N9      N    0.88909   0.74387   0.54734   1.000
    N10     N    0.11097   0.25614   0.45261   1.000
    N11     N    0.61128   0.25587   0.45245   1.000
    N12     N    0.18365   0.00741   0.31451   1.000
    N13     N    0.68376   0.00711   0.31362   1.000
    N14     N    0.05942   0.75225   0.94536   1.000
    N15     N    0.55900   0.75233   0.94516   1.000
    N16     N    0.07579   0.74385   0.43782   1.000
    N17     N    0.34473   0.48843   0.19304   1.000
    N18     N    0.57564   0.74400   0.43726   1.000
    N19     N    0.41339   0.75519   0.06347   1.000
    N20     N    0.91427   0.75506   0.06303   1.000
    N21     N    0.44105   0.24769   0.05483   1.000
    N22     N    0.31626   0.99291   0.68636   1.000
    N23     N    0.81637   0.99262   0.68548   1.000
    Zr24    Zr   0.40498   0.50632   0.80936   1.000
    O25     O    0.39911   0.58870   0.72727   1.000
    O26     O    0.41535   0.41829   0.88678   1.000
    Zr27    Zr   0.43350   0.00642   0.31418   1.000
    O28     O    0.43504   0.08965   0.23288   1.000
    O29     O    0.42209   0.91721   0.38823   1.000
    Zr30    Zr   0.93351   0.00628   0.31395   1.000
    O31     O    0.92205   0.91703   0.38799   1.000
    O32     O    0.93498   0.08960   0.23270   1.000
    Zr33    Zr   0.56652   0.99360   0.68581   1.000
    O34     O    0.57793   0.08282   0.61176   1.000
    O35     O    0.56499   0.91037   0.76711   1.000
    Zr36    Zr   0.06651   0.99375   0.68604   1.000
    O37     O    0.06497   0.91043   0.76730   1.000
    O38     O    0.07798   0.08300   0.61199   1.000
    Zr39    Zr   0.90483   0.50603   0.80894   1.000
    O40     O    0.91500   0.41813   0.88639   1.000
    O41     O    0.89917   0.58843   0.72699   1.000
    Zr42    Zr   0.59534   0.49373   0.19063   1.000
    O43     O    0.60107   0.41134   0.27269   1.000
    O44     O    0.58492   0.58175   0.11322   1.000
    Zr45    Zr   0.09542   0.49400   0.19108   1.000
    O46     O    0.10105   0.41159   0.27300   1.000
    O47     O    0.08507   0.58189   0.11361   1.000
    O48     O    0.35950   0.00751   0.31421   1.000
    O49     O    0.50765   0.00580   0.31399   1.000
    O50     O    0.42750   0.93169   0.24004   1.000
    O51     O    0.43202   0.08059   0.38775   1.000
    O52     O    0.52110   0.49115   0.19143   1.000
    O53     O    0.16915   0.49228   0.19167   1.000
    O54     O    0.99241   0.99420   0.68590   1.000
    O55     O    0.14048   0.99276   0.68629   1.000
    O56     O    0.07218   0.06850   0.76021   1.000
    O57     O    0.06806   0.91953   0.61254   1.000
    O58     O    0.64052   0.99251   0.68578   1.000
    O59     O    0.90773   0.58009   0.88421   1.000
    O60     O    0.92784   0.93153   0.23976   1.000
    O61     O    0.59015   0.56827   0.26346   1.000
    O62     O    0.56800   0.91943   0.61224   1.000
    O63     O    0.90991   0.43172   0.73600   1.000
    O64     O    0.93196   0.08050   0.38745   1.000
    O65     O    0.00760   0.00583   0.31409   1.000
    O66     O    0.66903   0.49218   0.19151   1.000
    O67     O    0.59272   0.41975   0.11531   1.000
    O68     O    0.47916   0.50890   0.80855   1.000
    O69     O    0.33116   0.50785   0.80849   1.000
    O70     O    0.40750   0.58030   0.88466   1.000
    O71     O    0.41007   0.43177   0.73652   1.000
    O72     O    0.83106   0.50775   0.80832   1.000
    O73     O    0.97907   0.50838   0.80819   1.000
    O74     O    0.02075   0.49163   0.19181   1.000
    O75     O    0.09245   0.41994   0.11578   1.000
    O76     O    0.09026   0.56831   0.26401   1.000
    O77     O    0.85954   0.00727   0.31370   1.000
    O78     O    0.49237   0.99422   0.68599   1.000
    O79     O    0.57253   0.06834   0.75993   1.000
loop_
    _geom_bond_atom_site_label_1
    _geom_bond_atom_site_label_2
    _geom_bond_distance
    _geom_bond_site_symmetry_2
    _ccdc_geom_bond_type
    Zr24   O25       2.59251      .   S
    N8     O25       5.33007      .   S
    Zr24   O26       2.59630      .   S
    N21    O26       5.34407  1_554   S
    Zr27   O28       2.59588      .   S
    N21    O28       5.34988      .   S
    Zr27   O29       2.58174  1_545   S
    N8     O29       5.31193      .   S
    Zr30   O31       2.58236  1_545   S
    N9     O31       5.31279      .   S
    Zr30   O32       2.59616      .   S
    N7     O32       5.35095      .   S
    Zr33   O34       2.58183  1_565   S
    N11    O34       5.31219      .   S
    Zr33   O35       2.59588      .   S
    N15    O35       5.34981      .   S
    Zr36   O37       2.59627      .   S
    N14    O37       5.35138      .   S
    Zr36   O38       2.58245  1_565   S
    N10    O38       5.31326      .   S
    Zr39   O40       2.59476      .   S
    N7     O40       5.34338  1_554   S
    Zr39   O41       2.59036      .   S
    N9     O41       5.32822      .   S
    Zr42   O43       2.59237      .   S
    N11    O43       5.33044      .   S
    Zr42   O44       2.59609      .   S
    N15    O44       5.34412  1_556   S
    Zr45   O46       2.59000      .   S
    N10    O46       5.32775      .   S
    Zr45   O47       2.59506      .   S
    N14    O47       5.34403  1_556   S
    Zr27   O48       1.63431      .   S
    N12    O48       3.88441      .   S
    Zr27   O49       1.63787      .   S
    N13    O49       3.89058      .   S
    Zr27   O50       1.64210  1_545   S
    N19    O50       3.89786      .   S
    Zr27   O51       1.63136      .   S
    N4     O51       3.87795      .   S
    N17    O52       3.89884      .   S
    Zr42   O52       1.64244      .   S
    N17    O53       3.87598      .   S
    Zr45   O53       1.62765      .   S
    Zr36   O54       1.63620  1_455   S
    N23    O54       3.88834      .   S
    Zr36   O55       1.63340      .   S
    N22    O55       3.88246      .   S
    Zr36   O56       1.64254  1_565   S
    N1     O56       3.89876      .   S
    Zr36   O57       1.63101      .   S
    N16    O57       3.87708      .   S
    N23    O58       3.88439      .   S
    Zr33   O58       1.63430      .   S
    N20    O59       3.91184  1_554   S
    Zr39   O59       1.65020      .   S
    N20    O60       3.89927      .   S
    Zr30   O60       1.64280  1_545   S
    N18    O61       3.88080      .   S
    Zr42   O61       1.63199      .   S
    N18    O62       3.87819      .   S
    Zr33   O62       1.63145      .   S
    N5     O63       3.87893      .   S
    Zr39   O63       1.63108      .   S
    N5     O64       3.87708      .   S
    Zr30   O64       1.63103      .   S
    N12    O65       3.88832      .   S
    Zr30   O65       1.63618  1_655   S
    Zr42   O66       1.62656      .   S
    N6     O66       3.87161      .   S
    Zr42   O67       1.65003      .   S
    N0     O67       3.91177  1_556   S
    Zr24   O68       1.64111      .   S
    N2     O68       3.89660      .   S
    Zr24   O69       1.62945      .   S
    N3     O69       3.87887      .   S
    Zr24   O70       1.64986      .   S
    N19    O70       3.91124  1_554   S
    Zr24   O71       1.63190      .   S
    N4     O71       3.88063      .   S
    Zr39   O72       1.62839      .   S
    N2     O72       3.87727      .   S
    Zr39   O73       1.64217      .   S
    N3     O73       3.89852  1_455   S
    Zr45   O74       1.65172      .   S
    N6     O74       3.89758  1_655   S
    Zr45   O75       1.65047      .   S
    N1     O75       3.91257  1_556   S
    Zr45   O76       1.63117      .   S
    N16    O76       3.87922      .   S
    Zr30   O77       1.63339      .   S
    N13    O77       3.88243      .   S
    Zr33   O78       1.63785      .   S
    N22    O78       3.89056      .   S
    Zr33   O79       1.64198  1_565   S
    N0     O79       3.89745      .   S
