# CIF file generated by openbabel 2.4.90, see http://openbabel.sf.net
data_I
_chemical_name_common ''
_cell_length_a 22.087
_cell_length_b 17.892
_cell_length_c 20.541
_cell_angle_alpha 110.258
_cell_angle_beta 93.396
_cell_angle_gamma 89.007
_space_group_name_H-M_alt 'P 1'
_space_group_name_Hall 'P 1'
loop_
    _symmetry_equiv_pos_as_xyz
    x,y,z
loop_
    _atom_site_label
    _atom_site_type_symbol
    _atom_site_fract_x
    _atom_site_fract_y
    _atom_site_fract_z
    _atom_site_occupancy
    C0      C    0.09769   0.43813   0.22735   1.000
    C1      C    0.59739   0.43772   0.22694   1.000
    C2      C    0.09315   0.54986   0.15480   1.000
    C3      C    0.59328   0.54975   0.15431   1.000
    C4      C    0.06958   0.93759   0.72224   1.000
    C5      C    0.57039   0.93744   0.72210   1.000
    C6      C    0.06343   0.04990   0.64984   1.000
    C7      C    0.56264   0.04977   0.64952   1.000
    C8      C    0.40263   0.56231   0.77300   1.000
    C9      C    0.90278   0.56191   0.77269   1.000
    C10     C    0.40733   0.45032   0.84572   1.000
    C11     C    0.90688   0.45014   0.84518   1.000
    C12     C    0.42963   0.06258   0.27789   1.000
    C13     C    0.93043   0.06244   0.27775   1.000
    C14     C    0.43737   0.95025   0.35047   1.000
    C15     C    0.93659   0.95013   0.35015   1.000
    C16     C    0.10676   0.21641   0.04619   1.000
    C17     C    0.60798   0.21656   0.04589   1.000
    C18     C    0.10053   0.10481   0.93069   1.000
    C19     C    0.60180   0.10480   0.93048   1.000
    C20     C    0.06779   0.27406   0.82749   1.000
    C21     C    0.56825   0.27365   0.82703   1.000
    C22     C    0.07509   0.38556   0.94223   1.000
    C23     C    0.57554   0.38533   0.94100   1.000
    C24     C    0.28965   0.39263   0.23156   1.000
    C25     C    0.79012   0.39343   0.23279   1.000
    C26     C    0.40333   0.39079   0.23297   1.000
    C27     C    0.90381   0.39219   0.23421   1.000
    C28     C    0.39983   0.58406   0.15439   1.000
    C29     C    0.89942   0.58402   0.15383   1.000
    C30     C    0.28615   0.58746   0.15498   1.000
    C31     C    0.78574   0.58692   0.15451   1.000
    C32     C    0.08723   0.60423   0.43541   1.000
    C33     C    0.58663   0.60407   0.43420   1.000
    C34     C    0.07273   0.71643   0.54849   1.000
    C35     C    0.57232   0.71582   0.54758   1.000
    C36     C    0.06428   0.88265   0.43956   1.000
    C37     C    0.56454   0.88304   0.43960   1.000
    C38     C    0.07606   0.77141   0.32750   1.000
    C39     C    0.57645   0.77232   0.32738   1.000
    C40     C    0.09396   0.53297   0.00480   1.000
    C41     C    0.59396   0.53306   0.00420   1.000
    C42     C    0.07547   0.61839   0.93258   1.000
    C43     C    0.57496   0.61864   0.93218   1.000
    C44     C    0.06040   0.81887   0.12396   1.000
    C45     C    0.55972   0.81872   0.12378   1.000
    C46     C    0.07984   0.72478   0.18778   1.000
    C47     C    0.57972   0.72451   0.18739   1.000
    C48     C    0.11136   0.86638   0.94136   1.000
    C49     C    0.61068   0.86636   0.94155   1.000
    C50     C    0.12591   0.93696   0.85760   1.000
    C51     C    0.62591   0.93687   0.85790   1.000
    C52     C    0.00346   0.78876   0.71128   1.000
    C53     C    0.50360   0.78912   0.71100   1.000
    C54     C    0.48285   0.71220   0.78809   1.000
    C55     C    0.98337   0.71177   0.78845   1.000
    C56     C    0.26650   0.90711   0.74060   1.000
    C57     C    0.76647   0.90715   0.73975   1.000
    C58     C    0.38066   0.91279   0.74115   1.000
    C59     C    0.88061   0.91300   0.74069   1.000
    C60     C    0.36549   0.07757   0.63100   1.000
    C61     C    0.86573   0.07709   0.62992   1.000
    C62     C    0.25206   0.07336   0.63238   1.000
    C63     C    0.75227   0.07271   0.63082   1.000
    C64     C    0.06681   0.03766   0.49956   1.000
    C65     C    0.56636   0.03752   0.49920   1.000
    C66     C    0.09472   0.12559   0.43517   1.000
    C67     C    0.59494   0.12522   0.43488   1.000
    C68     C    0.10810   0.32024   0.63282   1.000
    C69     C    0.60890   0.31973   0.63260   1.000
    C70     C    0.07924   0.22373   0.68858   1.000
    C71     C    0.57938   0.22345   0.68828   1.000
    C72     C    0.20556   0.23440   0.31854   1.000
    C73     C    0.70573   0.23406   0.31802   1.000
    C74     C    0.18125   0.30654   0.23598   1.000
    C75     C    0.68125   0.30643   0.23568   1.000
    C76     C    0.03494   0.42070   0.34550   1.000
    C77     C    0.53534   0.42082   0.34589   1.000
    C78     C    0.05289   0.35402   0.43390   1.000
    C79     C    0.55356   0.35403   0.43422   1.000
    C80     C    0.02370   0.82400   0.01297   1.000
    C81     C    0.52265   0.82396   0.01290   1.000
    C82     C    0.99228   0.70956   0.90348   1.000
    C83     C    0.49140   0.70973   0.90322   1.000
    C84     C    0.14526   0.33244   0.52984   1.000
    C85     C    0.64622   0.33177   0.52963   1.000
    C86     C    0.18520   0.22144   0.42725   1.000
    C87     C    0.68563   0.22083   0.42667   1.000
    C88     C    0.39204   0.78348   0.95410   1.000
    C89     C    0.89328   0.78362   0.95380   1.000
    C90     C    0.39821   0.89524   0.06951   1.000
    C91     C    0.89950   0.89521   0.06930   1.000
    C92     C    0.43178   0.72638   0.17296   1.000
    C93     C    0.93224   0.72598   0.17250   1.000
    C94     C    0.42450   0.61471   0.05829   1.000
    C95     C    0.92494   0.61447   0.05777   1.000
    C96     C    0.21006   0.60651   0.76726   1.000
    C97     C    0.71051   0.60746   0.76837   1.000
    C98     C    0.09637   0.60775   0.76580   1.000
    C99     C    0.59681   0.60930   0.76690   1.000
    C100    C    0.10076   0.41591   0.84620   1.000
    C101    C    0.60032   0.41606   0.84557   1.000
    C102    C    0.21444   0.41302   0.84553   1.000
    C103    C    0.71399   0.41265   0.84498   1.000
    C104    C    0.41339   0.39595   0.56577   1.000
    C105    C    0.91280   0.39580   0.56461   1.000
    C106    C    0.42770   0.28419   0.45239   1.000
    C107    C    0.92728   0.28361   0.45152   1.000
    C108    C    0.43548   0.11698   0.56030   1.000
    C109    C    0.93573   0.11737   0.56043   1.000
    C110    C    0.42357   0.22770   0.67260   1.000
    C111    C    0.92396   0.22861   0.67248   1.000
    C112    C    0.40619   0.46697   0.99579   1.000
    C113    C    0.90609   0.46707   0.99520   1.000
    C114    C    0.42504   0.38137   0.06781   1.000
    C115    C    0.92458   0.38165   0.06743   1.000
    C116    C    0.44026   0.18127   0.87622   1.000
    C117    C    0.93964   0.18116   0.87605   1.000
    C118    C    0.42041   0.27551   0.81260   1.000
    C119    C    0.92021   0.27524   0.81222   1.000
    C120    C    0.38934   0.13366   0.05844   1.000
    C121    C    0.88870   0.13367   0.05864   1.000
    C122    C    0.37411   0.06315   0.14209   1.000
    C123    C    0.87413   0.06309   0.14239   1.000
    C124    C    0.49642   0.21091   0.28890   1.000
    C125    C    0.99657   0.21128   0.28874   1.000
    C126    C    0.01667   0.28829   0.21157   1.000
    C127    C    0.51717   0.28783   0.21190   1.000
    C128    C    0.23355   0.09287   0.26024   1.000
    C129    C    0.73352   0.09291   0.25939   1.000
    C130    C    0.11940   0.08703   0.25930   1.000
    C131    C    0.61936   0.08722   0.25884   1.000
    C132    C    0.13429   0.92294   0.37008   1.000
    C133    C    0.63453   0.92245   0.36891   1.000
    C134    C    0.24775   0.92732   0.36917   1.000
    C135    C    0.74797   0.92667   0.36762   1.000
    C136    C    0.43366   0.96250   0.50079   1.000
    C137    C    0.93321   0.96237   0.50044   1.000
    C138    C    0.40508   0.87480   0.56510   1.000
    C139    C    0.90529   0.87444   0.56484   1.000
    C140    C    0.39113   0.68029   0.36739   1.000
    C141    C    0.89192   0.67979   0.36718   1.000
    C142    C    0.42064   0.77658   0.31171   1.000
    C143    C    0.92078   0.77630   0.31143   1.000
    C144    C    0.29430   0.76595   0.68197   1.000
    C145    C    0.79452   0.76554   0.68150   1.000
    C146    C    0.31880   0.69358   0.76431   1.000
    C147    C    0.81894   0.69340   0.76406   1.000
    C148    C    0.46471   0.57922   0.65409   1.000
    C149    C    0.96523   0.57935   0.65440   1.000
    C150    C    0.44647   0.64600   0.56575   1.000
    C151    C    0.94716   0.64600   0.56598   1.000
    C152    C    0.47736   0.17605   0.98709   1.000
    C153    C    0.97636   0.17604   0.98704   1.000
    C154    C    0.50862   0.29030   0.09677   1.000
    C155    C    0.00000   0.29048   0.09653   1.000
    C156    C    0.35381   0.66824   0.47035   1.000
    C157    C    0.85476   0.66758   0.47017   1.000
    C158    C    0.31439   0.77918   0.57331   1.000
    C159    C    0.81483   0.77855   0.57279   1.000
    C160    C    0.09134   0.37417   0.07016   1.000
    C161    C    0.59221   0.37424   0.06961   1.000
    C162    C    0.09084   0.30776   0.00118   1.000
    C163    C    0.59171   0.30771   0.00072   1.000
    C164    C    0.09830   0.22850   0.99796   1.000
    C165    C    0.59938   0.22852   0.99762   1.000
    C166    C    0.09478   0.16663   0.93410   1.000
    C167    C    0.59588   0.16657   0.93381   1.000
    C168    C    0.08336   0.18274   0.87230   1.000
    C169    C    0.58428   0.18253   0.87198   1.000
    C170    C    0.07720   0.26205   0.87557   1.000
    C171    C    0.57784   0.26178   0.87514   1.000
    C172    C    0.08119   0.32401   0.93933   1.000
    C173    C    0.58182   0.32381   0.93880   1.000
    C174    C    0.07644   0.11517   0.80377   1.000
    C175    C    0.57737   0.11486   0.80352   1.000
    C176    C    0.21295   0.49134   0.19224   1.000
    C177    C    0.71299   0.49106   0.19260   1.000
    C178    C    0.28111   0.49014   0.19324   1.000
    C179    C    0.78115   0.49026   0.19365   1.000
    C180    C    0.31426   0.43470   0.21520   1.000
    C181    C    0.81455   0.43537   0.21609   1.000
    C182    C    0.37734   0.43367   0.21596   1.000
    C183    C    0.87764   0.43467   0.21685   1.000
    C184    C    0.40846   0.48744   0.19373   1.000
    C185    C    0.90850   0.48822   0.19412   1.000
    C186    C    0.37527   0.54272   0.17160   1.000
    C187    C    0.87504   0.54291   0.17149   1.000
    C188    C    0.31224   0.54451   0.17177   1.000
    C189    C    0.81203   0.54441   0.17160   1.000
    C190    C    0.47649   0.48522   0.19273   1.000
    C191    C    0.97650   0.48650   0.19292   1.000
    C192    C    0.09067   0.61443   0.30733   1.000
    C193    C    0.59047   0.61508   0.30636   1.000
    C194    C    0.08286   0.68110   0.37484   1.000
    C195    C    0.58274   0.68146   0.37411   1.000
    C196    C    0.08170   0.66554   0.43719   1.000
    C197    C    0.58134   0.66550   0.43627   1.000
    C198    C    0.07381   0.72747   0.49960   1.000
    C199    C    0.57352   0.72720   0.49887   1.000
    C200    C    0.06807   0.80620   0.50090   1.000
    C201    C    0.56796   0.80610   0.50058   1.000
    C202    C    0.06931   0.82168   0.43861   1.000
    C203    C    0.56941   0.82196   0.43845   1.000
    C204    C    0.07603   0.75965   0.37609   1.000
    C205    C    0.57620   0.76020   0.37570   1.000
    C206    C    0.06224   0.87363   0.56849   1.000
    C207    C    0.56204   0.87332   0.56830   1.000
    C208    C    0.08646   0.59671   0.02889   1.000
    C209    C    0.58627   0.59675   0.02838   1.000
    C210    C    0.07610   0.64446   0.98886   1.000
    C211    C    0.57562   0.64458   0.98847   1.000
    C212    C    0.06474   0.72584   0.02219   1.000
    C213    C    0.56404   0.72588   0.02191   1.000
    C214    C    0.06810   0.75598   0.09536   1.000
    C215    C    0.56753   0.75588   0.09508   1.000
    C216    C    0.07877   0.70409   0.13123   1.000
    C217    C    0.57850   0.70394   0.13084   1.000
    C218    C    0.04483   0.78382   0.87232   1.000
    C219    C    0.54418   0.78403   0.87223   1.000
    C220    C    0.08657   0.84752   0.89090   1.000
    C221    C    0.58606   0.84759   0.89104   1.000
    C222    C    0.09497   0.88641   0.84444   1.000
    C223    C    0.59484   0.88643   0.84458   1.000
    C224    C    0.02640   0.80378   0.76268   1.000
    C225    C    0.52635   0.80406   0.76253   1.000
    C226    C    0.01518   0.76138   0.80549   1.000
    C227    C    0.51474   0.76174   0.80530   1.000
    C228    C    0.18479   0.98792   0.68699   1.000
    C229    C    0.68484   0.98745   0.68576   1.000
    C230    C    0.25279   0.98949   0.68608   1.000
    C231    C    0.75285   0.98918   0.68487   1.000
    C232    C    0.28896   0.94383   0.71651   1.000
    C233    C    0.78898   0.94375   0.71559   1.000
    C234    C    0.35193   0.94713   0.71696   1.000
    C235    C    0.85195   0.94715   0.71620   1.000
    C236    C    0.37980   0.99550   0.68616   1.000
    C237    C    0.87993   0.99537   0.68539   1.000
    C238    C    0.34356   0.04044   0.65507   1.000
    C239    C    0.84376   0.04005   0.65397   1.000
    C240    C    0.28066   0.03788   0.65545   1.000
    C241    C    0.78082   0.03740   0.65414   1.000
    C242    C    0.44778   0.99880   0.68635   1.000
    C243    C    0.94795   0.99863   0.68600   1.000
    C244    C    0.07632   0.10061   0.52707   1.000
    C245    C    0.57615   0.10039   0.52670   1.000
    C246    C    0.09199   0.14971   0.49127   1.000
    C247    C    0.59219   0.14937   0.49098   1.000
    C248    C    0.10490   0.23008   0.52800   1.000
    C249    C    0.60540   0.22965   0.52863   1.000
    C250    C    0.09930   0.25806   0.60120   1.000
    C251    C    0.59982   0.25763   0.60096   1.000
    C252    C    0.08320   0.20493   0.63259   1.000
    C253    C    0.58335   0.20462   0.63229   1.000
    C254    C    0.13133   0.28916   0.38396   1.000
    C255    C    0.63175   0.28892   0.38379   1.000
    C256    C    0.16705   0.27484   0.32621   1.000
    C257    C    0.66728   0.27461   0.32589   1.000
    C258    C    0.15363   0.31437   0.28009   1.000
    C259    C    0.65375   0.31426   0.27980   1.000
    C260    C    0.07218   0.37890   0.34191   1.000
    C261    C    0.57256   0.37893   0.34210   1.000
    C262    C    0.08220   0.34212   0.39077   1.000
    C263    C    0.58271   0.34207   0.39089   1.000
    C264    C    0.40787   0.62581   0.93038   1.000
    C265    C    0.90873   0.62586   0.92984   1.000
    C266    C    0.40832   0.69234   0.99920   1.000
    C267    C    0.90919   0.69227   0.99880   1.000
    C268    C    0.40063   0.77152   0.00237   1.000
    C269    C    0.90174   0.77153   0.00203   1.000
    C270    C    0.40413   0.83347   0.06618   1.000
    C271    C    0.90524   0.83340   0.06500   1.000
    C272    C    0.41574   0.81750   0.12801   1.000
    C273    C    0.91667   0.81729   0.12769   1.000
    C274    C    0.42218   0.73826   0.12485   1.000
    C275    C    0.92283   0.73798   0.12442   1.000
    C276    C    0.41821   0.67623   0.06114   1.000
    C277    C    0.91885   0.67603   0.06066   1.000
    C278    C    0.42264   0.88517   0.19647   1.000
    C279    C    0.92358   0.88487   0.19623   1.000
    C280    C    0.28721   0.50895   0.80745   1.000
    C281    C    0.78721   0.50871   0.80771   1.000
    C282    C    0.21904   0.50968   0.80640   1.000
    C283    C    0.71905   0.50996   0.80670   1.000
    C284    C    0.18563   0.56458   0.78396   1.000
    C285    C    0.68589   0.56539   0.78473   1.000
    C286    C    0.12255   0.56527   0.78320   1.000
    C287    C    0.62281   0.56642   0.78397   1.000
    C288    C    0.09169   0.51172   0.80592   1.000
    C289    C    0.59169   0.51266   0.80621   1.000
    C290    C    0.12514   0.45703   0.82856   1.000
    C291    C    0.62488   0.45739   0.82835   1.000
    C292    C    0.18816   0.45554   0.82836   1.000
    C293    C    0.68790   0.45560   0.82818   1.000
    C294    C    0.02370   0.51347   0.80700   1.000
    C295    C    0.52368   0.51486   0.80723   1.000
    C296    C    0.40960   0.38495   0.69362   1.000
    C297    C    0.90939   0.38559   0.69269   1.000
    C298    C    0.41727   0.31855   0.62586   1.000
    C299    C    0.91717   0.31892   0.62516   1.000
    C300    C    0.41867   0.33451   0.56371   1.000
    C301    C    0.91832   0.33449   0.56282   1.000
    C302    C    0.42650   0.27282   0.50111   1.000
    C303    C    0.92620   0.27256   0.50039   1.000
    C304    C    0.43205   0.19392   0.49940   1.000
    C305    C    0.93194   0.19383   0.49907   1.000
    C306    C    0.43060   0.17806   0.56153   1.000
    C307    C    0.93070   0.17834   0.56138   1.000
    C308    C    0.42382   0.23982   0.62420   1.000
    C309    C    0.92398   0.24036   0.62390   1.000
    C310    C    0.43798   0.12670   0.43168   1.000
    C311    C    0.93777   0.12640   0.43151   1.000
    C312    C    0.41386   0.40328   0.97162   1.000
    C313    C    0.91360   0.40332   0.97112   1.000
    C314    C    0.42442   0.35543   0.01152   1.000
    C315    C    0.92396   0.35557   0.01114   1.000
    C316    C    0.43599   0.27413   0.97808   1.000
    C317    C    0.93532   0.27419   0.97782   1.000
    C318    C    0.43250   0.24412   0.90491   1.000
    C319    C    0.93195   0.24405   0.90465   1.000
    C320    C    0.42162   0.29608   0.86915   1.000
    C321    C    0.92128   0.29594   0.86870   1.000
    C322    C    0.45585   0.21599   0.12777   1.000
    C323    C    0.95522   0.21623   0.12769   1.000
    C324    C    0.41396   0.15243   0.10896   1.000
    C325    C    0.91348   0.15253   0.10906   1.000
    C326    C    0.40518   0.11359   0.15542   1.000
    C327    C    0.90507   0.11364   0.15556   1.000
    C328    C    0.47368   0.19597   0.23740   1.000
    C329    C    0.97363   0.19627   0.23730   1.000
    C330    C    0.48528   0.23829   0.19470   1.000
    C331    C    0.98486   0.23866   0.19452   1.000
    C332    C    0.31517   0.01257   0.31423   1.000
    C333    C    0.81523   0.01211   0.31300   1.000
    C334    C    0.24716   0.01085   0.31513   1.000
    C335    C    0.74723   0.01053   0.31390   1.000
    C336    C    0.21103   0.05627   0.28440   1.000
    C337    C    0.71106   0.05619   0.28348   1.000
    C338    C    0.14806   0.05288   0.28374   1.000
    C339    C    0.64808   0.05288   0.28303   1.000
    C340    C    0.12009   0.00465   0.31461   1.000
    C341    C    0.62022   0.00452   0.31383   1.000
    C342    C    0.15626   0.95998   0.34603   1.000
    C343    C    0.65646   0.95959   0.34490   1.000
    C344    C    0.21919   0.96263   0.34580   1.000
    C345    C    0.71936   0.96214   0.34454   1.000
    C346    C    0.05206   0.00140   0.31400   1.000
    C347    C    0.55224   0.00121   0.31365   1.000
    C348    C    0.42387   0.89963   0.47324   1.000
    C349    C    0.92369   0.89942   0.47294   1.000
    C350    C    0.40784   0.85065   0.50901   1.000
    C351    C    0.90802   0.85032   0.50874   1.000
    C352    C    0.39462   0.77037   0.47135   1.000
    C353    C    0.89512   0.76994   0.47111   1.000
    C354    C    0.40021   0.74239   0.39903   1.000
    C355    C    0.90072   0.74197   0.39879   1.000
    C356    C    0.41668   0.79540   0.36769   1.000
    C357    C    0.91681   0.79510   0.36741   1.000
    C358    C    0.36829   0.71110   0.61619   1.000
    C359    C    0.86874   0.71083   0.61604   1.000
    C360    C    0.33275   0.72541   0.67409   1.000
    C361    C    0.83305   0.72512   0.67382   1.000
    C362    C    0.34630   0.68576   0.72010   1.000
    C363    C    0.84654   0.68560   0.71990   1.000
    C364    C    0.42749   0.62110   0.65788   1.000
    C365    C    0.92797   0.62113   0.65800   1.000
    C366    C    0.41732   0.65796   0.60900   1.000
    C367    C    0.91789   0.65790   0.60919   1.000
    C368    C    0.08686   0.62479   0.09909   1.000
    C369    C    0.58675   0.62469   0.09859   1.000
    C370    C    0.05018   0.77702   0.98605   1.000
    C371    C    0.54920   0.77711   0.98591   1.000
    C372    C    0.03187   0.74339   0.91569   1.000
    C373    C    0.53094   0.74362   0.91553   1.000
    C374    C    0.06532   0.86636   0.78124   1.000
    C375    C    0.56545   0.86646   0.78125   1.000
    C376    C    0.07242   0.12681   0.59674   1.000
    C377    C    0.57218   0.12660   0.59641   1.000
    C378    C    0.12263   0.28282   0.49722   1.000
    C379    C    0.62339   0.28233   0.49700   1.000
    C380    C    0.14503   0.25185   0.43134   1.000
    C381    C    0.64552   0.25137   0.43100   1.000
    C382    C    0.10710   0.36632   0.28710   1.000
    C383    C    0.60727   0.36631   0.28721   1.000
    C384    C    0.41345   0.37535   0.90141   1.000
    C385    C    0.91319   0.37523   0.90091   1.000
    C386    C    0.45082   0.22290   0.01409   1.000
    C387    C    0.94988   0.22301   0.01396   1.000
    C388    C    0.46908   0.25640   0.08446   1.000
    C389    C    0.96819   0.25665   0.08432   1.000
    C390    C    0.43458   0.13356   0.21875   1.000
    C391    C    0.93471   0.13368   0.21876   1.000
    C392    C    0.42784   0.87342   0.40358   1.000
    C393    C    0.92759   0.87322   0.40326   1.000
    C394    C    0.37664   0.71769   0.50297   1.000
    C395    C    0.87738   0.71720   0.50270   1.000
    C396    C    0.35451   0.74864   0.56898   1.000
    C397    C    0.85500   0.74816   0.56868   1.000
    C398    C    0.39279   0.63372   0.71270   1.000
    C399    C    0.89310   0.63370   0.71282   1.000
    C400    C    0.08028   0.35517   0.12312   1.000
    C401    C    0.58130   0.35532   0.12266   1.000
    C402    C    0.10157   0.44392   0.07099   1.000
    C403    C    0.60227   0.44396   0.07026   1.000
    C404    C    0.08544   0.04529   0.80510   1.000
    C405    C    0.58640   0.04502   0.80493   1.000
    C406    C    0.06134   0.13333   0.75031   1.000
    C407    C    0.56227   0.13294   0.75002   1.000
    C408    C    0.18723   0.43681   0.20795   1.000
    C409    C    0.68757   0.43665   0.20872   1.000
    C410    C    0.18607   0.54604   0.17582   1.000
    C411    C    0.68583   0.54531   0.17576   1.000
    C412    C    0.50095   0.52006   0.15650   1.000
    C413    C    0.00000   0.52053   0.15570   1.000
    C414    C    0.50430   0.44735   0.22803   1.000
    C415    C    0.00000   0.44999   0.22903   1.000
    C416    C    0.10406   0.54600   0.31000   1.000
    C417    C    0.60268   0.54615   0.30869   1.000
    C418    C    0.08281   0.63156   0.25212   1.000
    C419    C    0.58376   0.63286   0.25140   1.000
    C420    C    0.05404   0.85583   0.62230   1.000
    C421    C    0.55489   0.85528   0.62221   1.000
    C422    C    0.06665   0.94375   0.56665   1.000
    C423    C    0.56531   0.94357   0.56647   1.000
    C424    C    0.16140   0.93479   0.70621   1.000
    C425    C    0.66170   0.93464   0.70562   1.000
    C426    C    0.15619   0.04017   0.66857   1.000
    C427    C    0.65596   0.03909   0.66681   1.000
    C428    C    0.47779   0.96432   0.72253   1.000
    C429    C    0.97755   0.96460   0.72288   1.000
    C430    C    0.46984   0.03547   0.64980   1.000
    C431    C    0.97052   0.03462   0.64924   1.000
    C432    C    0.41875   0.64474   0.87733   1.000
    C433    C    0.91982   0.64486   0.87689   1.000
    C434    C    0.39791   0.55607   0.92973   1.000
    C435    C    0.89849   0.55610   0.92899   1.000
    C436    C    0.41361   0.95501   0.19506   1.000
    C437    C    0.91458   0.95475   0.19489   1.000
    C438    C    0.43775   0.86709   0.24997   1.000
    C439    C    0.93868   0.86670   0.24960   1.000
    C440    C    0.31252   0.56339   0.79126   1.000
    C441    C    0.81301   0.56314   0.79195   1.000
    C442    C    0.31446   0.45480   0.82433   1.000
    C443    C    0.81401   0.45400   0.82420   1.000
    C444    C    0.99973   0.47947   0.84420   1.000
    C445    C    0.49931   0.47999   0.84352   1.000
    C446    C    0.99540   0.55003   0.77096   1.000
    C447    C    0.49577   0.55267   0.77197   1.000
    C448    C    0.39737   0.45387   0.69130   1.000
    C449    C    0.89605   0.45404   0.68997   1.000
    C450    C    0.41638   0.36717   0.74857   1.000
    C451    C    0.91724   0.36843   0.74789   1.000
    C452    C    0.44513   0.14474   0.37778   1.000
    C453    C    0.94597   0.14421   0.37770   1.000
    C454    C    0.43471   0.05645   0.43352   1.000
    C455    C    0.93336   0.05628   0.43334   1.000
    C456    C    0.33831   0.06539   0.29430   1.000
    C457    C    0.83862   0.06524   0.29379   1.000
    C458    C    0.34405   0.96093   0.33318   1.000
    C459    C    0.84384   0.95986   0.33143   1.000
    C460    C    0.02246   0.03543   0.27712   1.000
    C461    C    0.52223   0.03569   0.27740   1.000
    C462    C    0.02949   0.96540   0.35075   1.000
    C463    C    0.53018   0.96454   0.35019   1.000
    O464    O    0.59196   0.34097   0.03517   1.000
    O465    O    0.58676   0.31576   0.96976   1.000
    O466    O    0.59554   0.26811   0.99917   1.000
    O467    O    0.09109   0.34096   0.03567   1.000
    O468    O    0.08602   0.31588   0.97026   1.000
    O469    O    0.09457   0.26813   0.99957   1.000
    O470    O    0.90349   0.80246   0.03352   1.000
    O471    O    0.89751   0.77757   0.97792   1.000
    O472    O    0.90547   0.73190   0.00042   1.000
    O473    O    0.40238   0.80249   0.03428   1.000
    O474    O    0.39633   0.77750   0.97824   1.000
    O475    O    0.40448   0.73193   0.00078   1.000
    O476    O    0.59012   0.56491   0.01629   1.000
    O477    O    0.09021   0.56484   0.01685   1.000
    O478    O    0.92427   0.36861   0.03929   1.000
    O479    O    0.91878   0.37945   0.99113   1.000
    O480    O    0.92964   0.31488   0.99448   1.000
    O481    O    0.42473   0.36840   0.03967   1.000
    O482    O    0.41914   0.37936   0.99157   1.000
    O483    O    0.43020   0.31478   0.99480   1.000
    O484    O    0.53592   0.80053   0.99941   1.000
    O485    O    0.03694   0.80051   0.99951   1.000
    O486    O    0.95903   0.23983   0.04914   1.000
    O487    O    0.94260   0.24860   0.99589   1.000
    O488    O    0.96312   0.19953   0.00050   1.000
    O489    O    0.45995   0.23965   0.04928   1.000
    O490    O    0.44340   0.24852   0.99608   1.000
    O491    O    0.46409   0.19948   0.00059   1.000
    O492    O    0.56578   0.74088   0.05850   1.000
    O493    O    0.55662   0.75149   0.00391   1.000
    O494    O    0.56983   0.68523   0.00519   1.000
    O495    O    0.06642   0.74091   0.05878   1.000
    O496    O    0.05746   0.75143   0.00412   1.000
    O497    O    0.07042   0.68515   0.00553   1.000
    O498    O    0.58651   0.61072   0.06348   1.000
    O499    O    0.58095   0.62067   0.00843   1.000
    O500    O    0.08666   0.61075   0.06399   1.000
    O501    O    0.08128   0.62058   0.00888   1.000
    O502    O    0.60368   0.22254   0.02176   1.000
    O503    O    0.10253   0.22246   0.02208   1.000
    O504    O    0.92190   0.64525   0.05922   1.000
    O505    O    0.42136   0.64547   0.05972   1.000
    O506    O    0.40165   0.14305   0.08370   1.000
    O507    O    0.90109   0.14310   0.08385   1.000
    O508    O    0.92084   0.70700   0.09254   1.000
    O509    O    0.91402   0.68415   0.02973   1.000
    O510    O    0.42019   0.70724   0.09300   1.000
    O511    O    0.41326   0.68428   0.03017   1.000
    O512    O    0.90237   0.86430   0.06715   1.000
    O513    O    0.91095   0.82534   0.09635   1.000
    O514    O    0.40117   0.86435   0.06785   1.000
    O515    O    0.40993   0.82549   0.09710   1.000
    O516    O    0.59724   0.40910   0.06994   1.000
    O517    O    0.58676   0.36478   0.09614   1.000
    O518    O    0.09646   0.40904   0.07058   1.000
    O519    O    0.08581   0.36467   0.09664   1.000
    O520    O    0.59778   0.49685   0.11229   1.000
    O521    O    0.09736   0.49689   0.11290   1.000
    O522    O    0.98410   0.27357   0.09043   1.000
    O523    O    0.96171   0.23644   0.10601   1.000
    O524    O    0.48885   0.27335   0.09062   1.000
    O525    O    0.46246   0.23619   0.10612   1.000
    O526    O    0.56362   0.78730   0.10943   1.000
    O527    O    0.57301   0.72991   0.11296   1.000
    O528    O    0.06425   0.78742   0.10966   1.000
    O529    O    0.07343   0.73003   0.11330   1.000
    O530    O    0.58263   0.66431   0.11472   1.000
    O531    O    0.59002   0.58722   0.12645   1.000
    O532    O    0.08282   0.66444   0.11516   1.000
    O533    O    0.09001   0.58733   0.12695   1.000
    O534    O    0.43490   0.18421   0.11837   1.000
    O535    O    0.40957   0.13301   0.13219   1.000
    O536    O    0.93435   0.18438   0.11838   1.000
    O537    O    0.90927   0.13308   0.13231   1.000
    O538    O    0.58935   0.39652   0.17480   1.000
    O539    O    0.08899   0.39665   0.17524   1.000
    O540    O    0.91975   0.77764   0.12606   1.000
    O541    O    0.92753   0.73198   0.14846   1.000
    O542    O    0.41896   0.77788   0.12643   1.000
    O543    O    0.42698   0.73232   0.14891   1.000
    O544    O    0.97004   0.22745   0.16111   1.000
    O545    O    0.92012   0.85108   0.16196   1.000
    O546    O    0.47056   0.22714   0.16124   1.000
    O547    O    0.41919   0.85134   0.16224   1.000
    O548    O    0.57911   0.71423   0.15912   1.000
    O549    O    0.07930   0.71443   0.15951   1.000
    O550    O    0.38965   0.08837   0.14876   1.000
    O551    O    0.88960   0.08836   0.14898   1.000
    O552    O    0.88723   0.56347   0.16266   1.000
    O553    O    0.54712   0.53490   0.15541   1.000
    O554    O    0.63956   0.54753   0.16504   1.000
    O555    O    0.58852   0.59130   0.20286   1.000
    O556    O    0.38755   0.56339   0.16300   1.000
    O557    O    0.79889   0.56566   0.16306   1.000
    O558    O    0.04658   0.53520   0.15525   1.000
    O559    O    0.13961   0.54795   0.16531   1.000
    O560    O    0.08798   0.59071   0.20346   1.000
    O561    O    0.29920   0.56598   0.16338   1.000
    O562    O    0.41988   0.12358   0.18709   1.000
    O563    O    0.91989   0.12366   0.18716   1.000
    O564    O    0.98825   0.50352   0.17431   1.000
    O565    O    0.48872   0.50264   0.17462   1.000
    O566    O    0.84354   0.54366   0.17155   1.000
    O567    O    0.89177   0.51556   0.18281   1.000
    O568    O    0.79659   0.51734   0.18263   1.000
    O569    O    0.34376   0.54361   0.17169   1.000
    O570    O    0.39187   0.51508   0.18267   1.000
    O571    O    0.29668   0.51732   0.18251   1.000
    O572    O    0.69941   0.51818   0.18418   1.000
    O573    O    0.19951   0.51869   0.18403   1.000
    O574    O    0.24703   0.49074   0.19274   1.000
    O575    O    0.20009   0.46407   0.20010   1.000
    O576    O    0.74707   0.49066   0.19313   1.000
    O577    O    0.70028   0.46385   0.20066   1.000
    O578    O    0.44248   0.48633   0.19323   1.000
    O579    O    0.49040   0.46628   0.21038   1.000
    O580    O    0.94250   0.48736   0.19352   1.000
    O581    O    0.98825   0.46825   0.21098   1.000
    O582    O    0.29768   0.46242   0.20422   1.000
    O583    O    0.79785   0.46281   0.20487   1.000
    O584    O    0.39290   0.46056   0.20485   1.000
    O585    O    0.89307   0.46144   0.20549   1.000
    O586    O    0.00077   0.26347   0.20305   1.000
    O587    O    0.97925   0.21747   0.21591   1.000
    O588    O    0.50123   0.26306   0.20330   1.000
    O589    O    0.47948   0.21713   0.21605   1.000
    O590    O    0.91908   0.91981   0.19556   1.000
    O591    O    0.92251   0.00859   0.23632   1.000
    O592    O    0.41813   0.92009   0.19577   1.000
    O593    O    0.42162   0.00880   0.23648   1.000
    O594    O    0.93113   0.87579   0.22292   1.000
    O595    O    0.43019   0.87613   0.22322   1.000
    O596    O    0.14246   0.43747   0.21765   1.000
    O597    O    0.64248   0.43719   0.21783   1.000
    O598    O    0.34580   0.43419   0.21558   1.000
    O599    O    0.30195   0.41366   0.22338   1.000
    O600    O    0.39034   0.41223   0.22447   1.000
    O601    O    0.84610   0.43502   0.21647   1.000
    O602    O    0.80233   0.41440   0.22444   1.000
    O603    O    0.89073   0.41343   0.22553   1.000
    O604    O    0.45413   0.16477   0.22808   1.000
    O605    O    0.43210   0.09807   0.24832   1.000
    O606    O    0.95417   0.16497   0.22803   1.000
    O607    O    0.93257   0.09806   0.24826   1.000
    O608    O    0.55085   0.44254   0.22749   1.000
    O609    O    0.60233   0.40202   0.25708   1.000
    O610    O    0.60004   0.49194   0.26782   1.000
    O611    O    0.04884   0.44406   0.22819   1.000
    O612    O    0.10239   0.40222   0.25723   1.000
    O613    O    0.10087   0.49207   0.26867   1.000
    O614    O    0.66750   0.31035   0.25774   1.000
    O615    O    0.16744   0.31045   0.25804   1.000
    O616    O    0.98510   0.20377   0.26302   1.000
    O617    O    0.48505   0.20344   0.26315   1.000
    O618    O    0.93763   0.90841   0.29988   1.000
    O619    O    0.43756   0.90867   0.30022   1.000
    O620    O    0.58711   0.62397   0.27888   1.000
    O621    O    0.08674   0.62299   0.27973   1.000
    O622    O    0.63372   0.07005   0.27094   1.000
    O623    O    0.13373   0.06995   0.27152   1.000
    O624    O    0.72229   0.07455   0.27144   1.000
    O625    O    0.22229   0.07457   0.27232   1.000
    O626    O    0.97645   0.04893   0.27743   1.000
    O627    O    0.03726   0.01842   0.29556   1.000
    O628    O    0.47593   0.04913   0.27764   1.000
    O629    O    0.53723   0.01845   0.29552   1.000
    O630    O    0.88453   0.06384   0.28577   1.000
    O631    O    0.93820   0.10333   0.32773   1.000
    O632    O    0.38397   0.06398   0.28610   1.000
    O633    O    0.43738   0.10366   0.32784   1.000
    O634    O    0.63051   0.34028   0.28351   1.000
    O635    O    0.66052   0.29443   0.30285   1.000
    O636    O    0.13036   0.34034   0.28360   1.000
    O637    O    0.16034   0.29460   0.30315   1.000
    O638    O    0.67957   0.05454   0.28326   1.000
    O639    O    0.63415   0.02870   0.29843   1.000
    O640    O    0.72915   0.03336   0.29869   1.000
    O641    O    0.17955   0.05457   0.28407   1.000
    O642    O    0.13408   0.02877   0.29918   1.000
    O643    O    0.22910   0.03356   0.29977   1.000
    O644    O    0.08964   0.37261   0.31451   1.000
    O645    O    0.58991   0.37262   0.31466   1.000
    O646    O    0.82692   0.03867   0.30340   1.000
    O647    O    0.32675   0.03898   0.30427   1.000
    O648    O    0.59658   0.58062   0.30753   1.000
    O649    O    0.58661   0.64827   0.34024   1.000
    O650    O    0.09736   0.58022   0.30867   1.000
    O651    O    0.08676   0.64777   0.34109   1.000
    O652    O    0.91880   0.78570   0.33942   1.000
    O653    O    0.41866   0.78599   0.33970   1.000
    O654    O    0.78123   0.01132   0.31345   1.000
    O655    O    0.82953   0.98598   0.32222   1.000
    O656    O    0.58623   0.00287   0.31374   1.000
    O657    O    0.54121   0.98288   0.33192   1.000
    O658    O    0.63834   0.98205   0.32937   1.000
    O659    O    0.73329   0.98634   0.32922   1.000
    O660    O    0.08608   0.00303   0.31431   1.000
    O661    O    0.04078   0.98340   0.33238   1.000
    O662    O    0.28117   0.01171   0.31468   1.000
    O663    O    0.32961   0.98675   0.32371   1.000
    O664    O    0.13817   0.98232   0.33032   1.000
    O665    O    0.23318   0.98674   0.33047   1.000
    O666    O    0.68651   0.25433   0.32196   1.000
    O667    O    0.18631   0.25462   0.32238   1.000
    O668    O    0.64951   0.28176   0.35484   1.000
    O669    O    0.14919   0.28200   0.35509   1.000
    O670    O    0.57632   0.76626   0.35154   1.000
    O671    O    0.07605   0.76553   0.35180   1.000
    O672    O    0.89021   0.95499   0.34079   1.000
    O673    O    0.39071   0.95559   0.34183   1.000
    O674    O    0.05356   0.39980   0.34371   1.000
    O675    O    0.07719   0.36051   0.36634   1.000
    O676    O    0.55395   0.39987   0.34400   1.000
    O677    O    0.57764   0.36050   0.36650   1.000
    O678    O    0.68791   0.96086   0.34472   1.000
    O679    O    0.73366   0.94441   0.35608   1.000
    O680    O    0.64549   0.94102   0.35691   1.000
    O681    O    0.18773   0.96130   0.34592   1.000
    O682    O    0.23347   0.94497   0.35749   1.000
    O683    O    0.14527   0.94146   0.35806   1.000
    O684    O    0.98304   0.95776   0.35045   1.000
    O685    O    0.93209   0.91167   0.37671   1.000
    O686    O    0.93498   0.00320   0.39175   1.000
    O687    O    0.48378   0.95740   0.35033   1.000
    O688    O    0.43261   0.91184   0.37703   1.000
    O689    O    0.43604   0.00335   0.39200   1.000
    O690    O    0.89632   0.71088   0.38299   1.000
    O691    O    0.39567   0.71134   0.38321   1.000
    O692    O    0.90877   0.76854   0.38310   1.000
    O693    O    0.92220   0.83416   0.38534   1.000
    O694    O    0.40844   0.76890   0.38336   1.000
    O695    O    0.42226   0.83441   0.38564   1.000
    O696    O    0.57947   0.72083   0.37491   1.000
    O697    O    0.58204   0.67348   0.40519   1.000
    O698    O    0.07945   0.72038   0.37547   1.000
    O699    O    0.08228   0.67332   0.40602   1.000
    O700    O    0.57281   0.79108   0.40708   1.000
    O701    O    0.07267   0.79067   0.40735   1.000
    O702    O    0.94187   0.13530   0.40461   1.000
    O703    O    0.44156   0.13572   0.40473   1.000
    O704    O    0.60723   0.31549   0.38734   1.000
    O705    O    0.63863   0.27015   0.40740   1.000
    O706    O    0.10676   0.31564   0.38737   1.000
    O707    O    0.13818   0.27050   0.40765   1.000
    O708    O    0.06755   0.34807   0.41234   1.000
    O709    O    0.56814   0.34805   0.41256   1.000
    O710    O    0.89792   0.75596   0.43495   1.000
    O711    O    0.39742   0.75638   0.43519   1.000
    O712    O    0.92564   0.88632   0.43810   1.000
    O713    O    0.42586   0.88653   0.43841   1.000
    O714    O    0.66557   0.23610   0.42884   1.000
    O715    O    0.16512   0.23664   0.42930   1.000
    O716    O    0.63445   0.26685   0.46400   1.000
    O717    O    0.13383   0.26733   0.46428   1.000
    O718    O    0.93557   0.09134   0.43243   1.000
    O719    O    0.93485   0.16011   0.46529   1.000
    O720    O    0.43634   0.09157   0.43260   1.000
    O721    O    0.43501   0.16031   0.46554   1.000
    O722    O    0.58398   0.63479   0.43524   1.000
    O723    O    0.59356   0.13729   0.46293   1.000
    O724    O    0.09336   0.13765   0.46322   1.000
    O725    O    0.08447   0.63488   0.43630   1.000
    O726    O    0.57743   0.69635   0.46757   1.000
    O727    O    0.07776   0.69650   0.46840   1.000
    O728    O    0.56698   0.85250   0.43903   1.000
    O729    O    0.56869   0.81403   0.46952   1.000
    O730    O    0.06680   0.85216   0.43909   1.000
    O731    O    0.06869   0.81394   0.46975   1.000
    O732    O    0.92674   0.27809   0.47596   1.000
    O733    O    0.42710   0.27850   0.47675   1.000
    O734    O    0.86607   0.69239   0.48644   1.000
    O735    O    0.36522   0.69297   0.48666   1.000
    O736    O    0.88625   0.74357   0.48691   1.000
    O737    O    0.90157   0.81013   0.48993   1.000
    O738    O    0.38563   0.74403   0.48716   1.000
    O739    O    0.40123   0.81051   0.49018   1.000
    O740    O    0.92845   0.93089   0.48669   1.000
    O741    O    0.91586   0.87487   0.49084   1.000
    O742    O    0.42876   0.93107   0.48702   1.000
    O743    O    0.41585   0.87514   0.49113   1.000
    O744    O    0.58417   0.12488   0.50884   1.000
    O745    O    0.59879   0.18951   0.50981   1.000
    O746    O    0.08416   0.12516   0.50917   1.000
    O747    O    0.09845   0.18990   0.50964   1.000
    O748    O    0.61439   0.25599   0.51282   1.000
    O749    O    0.63480   0.30705   0.51332   1.000
    O750    O    0.11377   0.25645   0.51261   1.000
    O751    O    0.13395   0.30763   0.51353   1.000
    O752    O    0.57074   0.76665   0.49973   1.000
    O753    O    0.57292   0.72151   0.52323   1.000
    O754    O    0.92907   0.23320   0.49973   1.000
    O755    O    0.93132   0.18608   0.53023   1.000
    O756    O    0.57126   0.06895   0.51295   1.000
    O757    O    0.42927   0.23337   0.50026   1.000
    O758    O    0.43132   0.18599   0.53047   1.000
    O759    O    0.07157   0.06913   0.51332   1.000
    O760    O    0.07094   0.76683   0.50025   1.000
    O761    O    0.07327   0.72195   0.52405   1.000
    O762    O    0.92226   0.30353   0.53161   1.000
    O763    O    0.56500   0.83971   0.53444   1.000
    O764    O    0.06516   0.83992   0.53470   1.000
    O765    O    0.42259   0.30367   0.53241   1.000
    O766    O    0.86619   0.73268   0.53569   1.000
    O767    O    0.36557   0.73316   0.53597   1.000
    O768    O    0.90666   0.86238   0.53679   1.000
    O769    O    0.40646   0.86272   0.53706   1.000
    O770    O    0.57416   0.11349   0.56156   1.000
    O771    O    0.07437   0.11371   0.56191   1.000
    O772    O    0.10210   0.24407   0.56460   1.000
    O773    O    0.60261   0.24364   0.56480   1.000
    O774    O    0.43304   0.14752   0.56092   1.000
    O775    O    0.93322   0.14786   0.56090   1.000
    O776    O    0.92734   0.20935   0.59264   1.000
    O777    O    0.42721   0.20894   0.59287   1.000
    O778    O    0.91556   0.36514   0.56372   1.000
    O779    O    0.91774   0.32670   0.59399   1.000
    O780    O    0.41603   0.36523   0.56474   1.000
    O781    O    0.41797   0.32653   0.59479   1.000
    O782    O    0.43189   0.65198   0.58738   1.000
    O783    O    0.93252   0.65195   0.58759   1.000
    O784    O    0.56367   0.90845   0.56739   1.000
    O785    O    0.56398   0.99667   0.60800   1.000
    O786    O    0.06445   0.90869   0.56757   1.000
    O787    O    0.06504   0.99683   0.60825   1.000
    O788    O    0.55846   0.86430   0.59526   1.000
    O789    O    0.05814   0.86473   0.59540   1.000
    O790    O    0.83491   0.76336   0.57074   1.000
    O791    O    0.86187   0.72950   0.59236   1.000
    O792    O    0.33445   0.76391   0.57115   1.000
    O793    O    0.36140   0.72987   0.59259   1.000
    O794    O    0.57776   0.16561   0.61435   1.000
    O795    O    0.56741   0.08819   0.62297   1.000
    O796    O    0.07781   0.16587   0.61467   1.000
    O797    O    0.06792   0.08836   0.62329   1.000
    O798    O    0.59158   0.23112   0.61663   1.000
    O799    O    0.60436   0.28868   0.61678   1.000
    O800    O    0.09125   0.23149   0.61690   1.000
    O801    O    0.10370   0.28915   0.61701   1.000
    O802    O    0.39280   0.68453   0.61260   1.000
    O803    O    0.42241   0.63953   0.63344   1.000
    O804    O    0.89331   0.68436   0.61262   1.000
    O805    O    0.92293   0.63951   0.63360   1.000
    O806    O    0.85090   0.71798   0.64493   1.000
    O807    O    0.35052   0.71825   0.64514   1.000
    O808    O    0.56264   0.89636   0.67216   1.000
    O809    O    0.06181   0.89671   0.67227   1.000
    O810    O    0.92057   0.27964   0.62453   1.000
    O811    O    0.92397   0.23448   0.64819   1.000
    O812    O    0.42055   0.27919   0.62503   1.000
    O813    O    0.42369   0.23376   0.64840   1.000
    O814    O    0.91328   0.35225   0.65893   1.000
    O815    O    0.41344   0.35175   0.65974   1.000
    O816    O    0.85474   0.05857   0.64195   1.000
    O817    O    0.76655   0.05505   0.64248   1.000
    O818    O    0.35453   0.05900   0.64304   1.000
    O819    O    0.58136   0.21403   0.66029   1.000
    O820    O    0.26636   0.05562   0.64392   1.000
    O821    O    0.08122   0.21433   0.66059   1.000
    O822    O    0.01697   0.04226   0.64954   1.000
    O823    O    0.95924   0.01663   0.66762   1.000
    O824    O    0.51624   0.04262   0.64966   1.000
    O825    O    0.60930   0.04443   0.65817   1.000
    O826    O    0.56246   0.09136   0.69977   1.000
    O827    O    0.45881   0.01714   0.66808   1.000
    O828    O    0.10981   0.04504   0.65920   1.000
    O829    O    0.06238   0.09162   0.70008   1.000
    O830    O    0.81229   0.03872   0.65406   1.000
    O831    O    0.86184   0.01771   0.66968   1.000
    O832    O    0.44610   0.60016   0.65599   1.000
    O833    O    0.76684   0.01329   0.66951   1.000
    O834    O    0.94660   0.60024   0.65620   1.000
    O835    O    0.31211   0.03916   0.65526   1.000
    O836    O    0.36168   0.01797   0.67062   1.000
    O837    O    0.26673   0.01369   0.67077   1.000
    O838    O    0.41014   0.62741   0.68529   1.000
    O839    O    0.91054   0.62742   0.68541   1.000
    O840    O    0.67040   0.01327   0.67629   1.000
    O841    O    0.17049   0.01405   0.67778   1.000
    O842    O    0.81379   0.74533   0.67766   1.000
    O843    O    0.83979   0.70536   0.69686   1.000
    O844    O    0.31353   0.74568   0.67803   1.000
    O845    O    0.33953   0.70559   0.69710   1.000
    O846    O    0.71885   0.98831   0.68532   1.000
    O847    O    0.77092   0.96646   0.70023   1.000
    O848    O    0.91394   0.99700   0.68570   1.000
    O849    O    0.86594   0.97126   0.70080   1.000
    O850    O    0.67327   0.96105   0.69569   1.000
    O851    O    0.96275   0.98162   0.70444   1.000
    O852    O    0.21879   0.98871   0.68654   1.000
    O853    O    0.27087   0.96666   0.70130   1.000
    O854    O    0.41379   0.99715   0.68626   1.000
    O855    O    0.36586   0.97132   0.70156   1.000
    O856    O    0.46279   0.98156   0.70444   1.000
    O857    O    0.17309   0.96136   0.69660   1.000
    O858    O    0.90272   0.41981   0.69133   1.000
    O859    O    0.89942   0.50798   0.73133   1.000
    O860    O    0.40349   0.41941   0.69246   1.000
    O861    O    0.40000   0.50809   0.73215   1.000
    O862    O    0.91332   0.37701   0.72029   1.000
    O863    O    0.41299   0.37606   0.72110   1.000
    O864    O    0.61605   0.93604   0.71386   1.000
    O865    O    0.11549   0.93619   0.71423   1.000
    O866    O    0.51497   0.79659   0.73677   1.000
    O867    O    0.01493   0.79627   0.73698   1.000
    O868    O    0.36954   0.65974   0.71640   1.000
    O869    O    0.39771   0.59802   0.74285   1.000
    O870    O    0.86982   0.65965   0.71636   1.000
    O871    O    0.89794   0.59781   0.74276   1.000
    O872    O    0.82047   0.94545   0.71590   1.000
    O873    O    0.77773   0.92545   0.72767   1.000
    O874    O    0.86628   0.93007   0.72845   1.000
    O875    O    0.32045   0.94548   0.71674   1.000
    O876    O    0.27773   0.92547   0.72856   1.000
    O877    O    0.36629   0.92996   0.72906   1.000
    O878    O    0.83274   0.68950   0.74198   1.000
    O879    O    0.33255   0.68967   0.74221   1.000
    O880    O    0.52409   0.95088   0.72232   1.000
    O881    O    0.56792   0.90195   0.75168   1.000
    O882    O    0.57840   0.99123   0.76352   1.000
    O883    O    0.02357   0.95110   0.72256   1.000
    O884    O    0.06745   0.90198   0.75174   1.000
    O885    O    0.07751   0.99144   0.76367   1.000
    O886    O    0.91206   0.40929   0.79654   1.000
    O887    O    0.41186   0.40875   0.79715   1.000
    O888    O    0.56982   0.12390   0.77677   1.000
    O889    O    0.06889   0.12425   0.77704   1.000
    O890    O    0.54590   0.83526   0.77189   1.000
    O891    O    0.52054   0.78290   0.78392   1.000
    O892    O    0.04586   0.83507   0.77196   1.000
    O893    O    0.02079   0.78258   0.78409   1.000
    O894    O    0.10946   0.58651   0.77450   1.000
    O895    O    0.60981   0.58786   0.77544   1.000
    O896    O    0.19785   0.58554   0.77561   1.000
    O897    O    0.69820   0.58643   0.77655   1.000
    O898    O    0.94909   0.55597   0.77183   1.000
    O899    O    0.00955   0.53175   0.78898   1.000
    O900    O    0.44920   0.55749   0.77249   1.000
    O901    O    0.50972   0.53376   0.78960   1.000
    O902    O    0.85790   0.56253   0.78232   1.000
    O903    O    0.91130   0.60339   0.82479   1.000
    O904    O    0.35758   0.56285   0.78213   1.000
    O905    O    0.41069   0.60353   0.82517   1.000
    O906    O    0.08014   0.87639   0.81284   1.000
    O907    O    0.58015   0.87644   0.81292   1.000
    O908    O    0.15409   0.56493   0.78358   1.000
    O909    O    0.10712   0.53850   0.79456   1.000
    O910    O    0.20234   0.53713   0.79518   1.000
    O911    O    0.65435   0.56591   0.78435   1.000
    O912    O    0.60725   0.53954   0.79509   1.000
    O913    O    0.70247   0.53767   0.79572   1.000
    O914    O    0.49879   0.73697   0.79670   1.000
    O915    O    0.99928   0.73657   0.79697   1.000
    O916    O    0.29987   0.53617   0.79936   1.000
    O917    O    0.80011   0.53593   0.79983   1.000
    O918    O    0.58189   0.07994   0.80423   1.000
    O919    O    0.58083   0.14870   0.83775   1.000
    O920    O    0.08094   0.08023   0.80444   1.000
    O921    O    0.07990   0.14895   0.83804   1.000
    O922    O    0.52946   0.77288   0.83877   1.000
    O923    O    0.03001   0.77260   0.83891   1.000
    O924    O    0.05770   0.51260   0.80646   1.000
    O925    O    0.10842   0.48438   0.81724   1.000
    O926    O    0.55768   0.51376   0.80672   1.000
    O927    O    0.60828   0.48503   0.81728   1.000
    O928    O    0.25313   0.50931   0.80693   1.000
    O929    O    0.20360   0.48261   0.81738   1.000
    O930    O    0.75313   0.50933   0.80721   1.000
    O931    O    0.70347   0.48278   0.81744   1.000
    O932    O    0.01171   0.49647   0.82560   1.000
    O933    O    0.51149   0.49742   0.82538   1.000
    O934    O    0.30084   0.48187   0.81589   1.000
    O935    O    0.80061   0.48135   0.81596   1.000
    O936    O    0.92074   0.28559   0.84046   1.000
    O937    O    0.42102   0.28579   0.84088   1.000
    O938    O    0.86044   0.45207   0.83469   1.000
    O939    O    0.36090   0.45256   0.83503   1.000
    O940    O    0.57305   0.26772   0.85109   1.000
    O941    O    0.07249   0.26805   0.85153   1.000
    O942    O    0.65639   0.45650   0.82827   1.000
    O943    O    0.70094   0.43413   0.83658   1.000
    O944    O    0.61260   0.43673   0.83696   1.000
    O945    O    0.15665   0.45628   0.82846   1.000
    O946    O    0.20130   0.43428   0.83695   1.000
    O947    O    0.11295   0.43647   0.83738   1.000
    O948    O    0.45332   0.46515   0.84462   1.000
    O949    O    0.95330   0.46481   0.84469   1.000
    O950    O    0.11044   0.91169   0.85102   1.000
    O951    O    0.09077   0.86697   0.86767   1.000
    O952    O    0.61038   0.91165   0.85124   1.000
    O953    O    0.59046   0.86701   0.86781   1.000
    O954    O    0.91004   0.41269   0.87305   1.000
    O955    O    0.90268   0.50312   0.88709   1.000
    O956    O    0.41039   0.41283   0.87357   1.000
    O957    O    0.40262   0.50319   0.88773   1.000
    O958    O    0.91724   0.33559   0.88481   1.000
    O959    O    0.92661   0.27000   0.88668   1.000
    O960    O    0.41754   0.33571   0.88528   1.000
    O961    O    0.42706   0.27010   0.88703   1.000
    O962    O    0.58106   0.22215   0.87356   1.000
    O963    O    0.59008   0.17455   0.90290   1.000
    O964    O    0.56512   0.81581   0.88164   1.000
    O965    O    0.53756   0.76383   0.89388   1.000
    O966    O    0.08028   0.22240   0.87394   1.000
    O967    O    0.08907   0.17469   0.90320   1.000
    O968    O    0.06570   0.81567   0.88161   1.000
    O969    O    0.03835   0.76361   0.89401   1.000
    O970    O    0.57983   0.29280   0.90697   1.000
    O971    O    0.07920   0.29303   0.90745   1.000
    O972    O    0.93579   0.21261   0.89035   1.000
    O973    O    0.43638   0.21269   0.89057   1.000
    O974    O    0.91428   0.63536   0.90337   1.000
    O975    O    0.41331   0.63528   0.90386   1.000
    O976    O    0.09897   0.85695   0.91613   1.000
    O977    O    0.59837   0.85698   0.91630   1.000
    O978    O    0.91339   0.38928   0.93602   1.000
    O979    O    0.41366   0.38931   0.93652   1.000
    O980    O    0.51117   0.72668   0.90938   1.000
    O981    O    0.01207   0.72648   0.90959   1.000
    O982    O    0.93363   0.25912   0.94124   1.000
    O983    O    0.43424   0.25913   0.94149   1.000
    O984    O    0.54007   0.76037   0.95072   1.000
    O985    O    0.04103   0.76021   0.95087   1.000
    O986    O    0.90361   0.59098   0.92942   1.000
    O987    O    0.40289   0.59094   0.93006   1.000
    O988    O    0.90896   0.65907   0.96432   1.000
    O989    O    0.40810   0.65907   0.96479   1.000
    O990    O    0.59884   0.13568   0.93215   1.000
    O991    O    0.09766   0.13572   0.93240   1.000
    O992    O    0.57529   0.63161   0.96033   1.000
    O993    O    0.07579   0.63142   0.96072   1.000
    O994    O    0.59763   0.19755   0.96572   1.000
    O995    O    0.09654   0.19757   0.96603   1.000
    O996    O    0.57868   0.35457   0.93990   1.000
    O997    O    0.07814   0.35478   0.94078   1.000
    O998    O    0.90984   0.43520   0.98316   1.000
    O999    O    0.41002   0.43513   0.98371   1.000
    O1000   O    0.09542   0.49400   0.19108   1.000
    O1001   O    0.59534   0.49373   0.19063   1.000
    O1002   O    0.06651   0.99375   0.68604   1.000
    O1003   O    0.56652   0.99360   0.68581   1.000
    O1004   O    0.40498   0.50632   0.80936   1.000
    O1005   O    0.90483   0.50603   0.80894   1.000
    O1006   O    0.43350   0.00642   0.31418   1.000
    O1007   O    0.93351   0.00628   0.31395   1.000
loop_
    _geom_bond_atom_site_label_1
    _geom_bond_atom_site_label_2
    _geom_bond_distance
    _geom_bond_site_symmetry_2
    _ccdc_geom_bond_type
    C163   O464      0.75027      .   S
    C161   O464      0.75027      .   S
    C163   O465      0.70129  1_554   S
    C173   O465      0.70129      .   S
    C163   O466      0.70186  1_554   S
    C165   O466      0.70186      .   S
    C162   O467      0.75038      .   S
    C160   O467      0.75038      .   S
    C162   O468      0.70099  1_554   S
    C172   O468      0.70099      .   S
    C162   O469      0.70189  1_554   S
    C164   O469      0.70189      .   S
    C269   O470      0.68993      .   S
    C271   O470      0.68993      .   S
    C269   O471      0.54504  1_554   S
    C89    O471      0.54504      .   S
    C269   O472      0.70186      .   S
    C267   O472      0.70186  1_556   S
    C268   O473      0.69596      .   S
    C270   O473      0.69596      .   S
    C268   O474      0.54503  1_554   S
    C88    O474      0.54503      .   S
    C268   O475      0.70164      .   S
    C266   O475      0.70164  1_556   S
    C41    O476      0.54436      .   S
    C209   O476      0.54436      .   S
    C40    O477      0.54436      .   S
    C208   O477      0.54436      .   S
    C315   O478      0.54303      .   S
    C115   O478      0.54303      .   S
    C315   O479      0.69198  1_554   S
    C313   O479      0.69198      .   S
    C315   O480      0.70161  1_554   S
    C317   O480      0.70161      .   S
    C314   O481      0.54296      .   S
    C114   O481      0.54296      .   S
    C314   O482      0.69198  1_554   S
    C312   O482      0.69198      .   S
    C314   O483      0.70161  1_554   S
    C316   O483      0.70161      .   S
    C81    O484      0.51319  1_554   S
    C371   O484      0.51319      .   S
    C80    O485      0.51329  1_554   S
    C370   O485      0.51329      .   S
    C387   O486      0.69848      .   S
    C389   O486      0.69848      .   S
    C387   O487      0.69376  1_554   S
    C317   O487      0.69376      .   S
    C387   O488      0.51329      .   S
    C153   O488      0.51329  1_556   S
    C386   O489      0.69832      .   S
    C388   O489      0.69832      .   S
    C386   O490      0.69372  1_554   S
    C316   O490      0.69372      .   S
    C386   O491      0.51323      .   S
    C152   O491      0.51323  1_556   S
    C213   O492      0.70393      .   S
    C215   O492      0.70393      .   S
    C213   O493      0.69367      .   S
    C371   O493      0.69367  1_556   S
    C213   O494      0.70160      .   S
    C211   O494      0.70160  1_556   S
    C212   O495      0.70395      .   S
    C214   O495      0.70395      .   S
    C212   O496      0.69379      .   S
    C370   O496      0.69379  1_556   S
    C212   O497      0.70163      .   S
    C210   O497      0.70163  1_556   S
    C209   O498      0.67621      .   S
    C369   O498      0.67621      .   S
    C209   O499      0.69208      .   S
    C211   O499      0.69208  1_556   S
    C208   O500      0.67616      .   S
    C368   O500      0.67616      .   S
    C208   O501      0.69209      .   S
    C210   O501      0.69209  1_556   S
    C17    O502      0.54504      .   S
    C165   O502      0.54504  1_556   S
    C16    O503      0.54504      .   S
    C164   O503      0.54504  1_556   S
    C95    O504      0.54435      .   S
    C277   O504      0.54435      .   S
    C94    O505      0.54436      .   S
    C276   O505      0.54436      .   S
    C120   O506      0.54393      .   S
    C324   O506      0.54393      .   S
    C121   O507      0.54389      .   S
    C325   O507      0.54389      .   S
    C277   O508      0.69573      .   S
    C275   O508      0.69573      .   S
    C277   O509      0.70107      .   S
    C267   O509      0.70107  1_556   S
    C276   O510      0.69572      .   S
    C274   O510      0.69572      .   S
    C276   O511      0.70150      .   S
    C266   O511      0.70150  1_556   S
    C271   O512      0.54222      .   S
    C91    O512      0.54222      .   S
    C271   O513      0.71077      .   S
    C273   O513      0.71077      .   S
    C270   O514      0.54473      .   S
    C90    O514      0.54473      .   S
    C270   O515      0.70186      .   S
    C272   O515      0.70186      .   S
    C161   O516      0.63314      .   S
    C403   O516      0.63314      .   S
    C161   O517      0.64213      .   S
    C401   O517      0.64213      .   S
    C160   O518      0.63321      .   S
    C402   O518      0.63321      .   S
    C160   O519      0.64203      .   S
    C400   O519      0.64203      .   S
    C403   O520      1.04492      .   S
    C3     O520      1.04492      .   S
    C402   O521      1.04368      .   S
    C2     O521      1.04368      .   S
    C389   O522      0.45046      .   S
    C155   O522      0.45046  1_455   S
    C389   O523      0.68599      .   S
    C323   O523      0.68599      .   S
    C388   O524      0.51975      .   S
    C154   O524      0.51975      .   S
    C388   O525      0.68609      .   S
    C322   O525      0.68609      .   S
    C215   O526      0.54491      .   S
    C45    O526      0.54491      .   S
    C215   O527      0.69029      .   S
    C217   O527      0.69029      .   S
    C214   O528      0.54490      .   S
    C44    O528      0.54490      .   S
    C214   O529      0.69028      .   S
    C216   O529      0.69028      .   S
    C369   O530      0.67775      .   S
    C217   O530      0.67775      .   S
    C369   O531      1.02045      .   S
    C3     O531      1.02045      .   S
    C368   O532      0.67768      .   S
    C216   O532      0.67768      .   S
    C368   O533      1.02022      .   S
    C2     O533      1.02022      .   S
    C324   O534      0.70502      .   S
    C322   O534      0.70502      .   S
    C324   O535      0.69230      .   S
    C326   O535      0.69230      .   S
    C325   O536      0.70500      .   S
    C323   O536      0.70500      .   S
    C325   O537      0.69223      .   S
    C327   O537      0.69223      .   S
    C401   O538      1.07578      .   S
    C1     O538      1.07578      .   S
    C400   O539      1.07893      .   S
    C0     O539      1.07893      .   S
    C275   O540      0.70092      .   S
    C273   O540      0.70092      .   S
    C275   O541      0.54444      .   S
    C93    O541      0.54444      .   S
    C274   O542      0.70092      .   S
    C272   O542      0.70092      .   S
    C274   O543      0.54448      .   S
    C92    O543      0.54448      .   S
    C323   O544      0.70626      .   S
    C331   O544      0.70626      .   S
    C273   O545      0.75323      .   S
    C279   O545      0.75323      .   S
    C322   O546      0.70626      .   S
    C330   O546      0.70626      .   S
    C272   O547      0.75309      .   S
    C278   O547      0.75309      .   S
    C217   O548      0.54453      .   S
    C47    O548      0.54453      .   S
    C216   O549      0.54456      .   S
    C46    O549      0.54456      .   S
    C122   O550      0.54506      .   S
    C326   O550      0.54506      .   S
    C123   O551      0.54507      .   S
    C327   O551      0.54507      .   S
    C29    O552      0.54410      .   S
    C187   O552      0.54410      .   S
    C3     O553      1.06160      .   S
    C412   O553      1.06160      .   S
    C3     O554      1.03573      .   S
    C411   O554      1.03573      .   S
    C3     O555      1.02688      .   S
    C419   O555      1.02688      .   S
    C28    O556      0.54408      .   S
    C186   O556      0.54408      .   S
    C31    O557      0.54415      .   S
    C189   O557      0.54415      .   S
    C2     O558      1.06743      .   S
    C413   O558      1.06743      .   S
    C2     O559      1.03849      .   S
    C410   O559      1.03849      .   S
    C2     O560      1.02520      .   S
    C418   O560      1.02520      .   S
    C30    O561      0.54460      .   S
    C188   O561      0.54460      .   S
    C326   O562      0.67594      .   S
    C390   O562      0.67594      .   S
    C327   O563      0.67596      .   S
    C391   O563      0.67596      .   S
    C413   O564      0.63341  1_455   S
    C191   O564      0.63341      .   S
    C412   O565      0.63540      .   S
    C190   O565      0.63540      .   S
    C187   O566      0.69584      .   S
    C189   O566      0.69584      .   S
    C187   O567      0.70161      .   S
    C185   O567      0.70161      .   S
    C189   O568      0.70217      .   S
    C179   O568      0.70217      .   S
    C186   O569      0.69604      .   S
    C188   O569      0.69604      .   S
    C186   O570      0.70156      .   S
    C184   O570      0.70156      .   S
    C188   O571      0.70180      .   S
    C178   O571      0.70180      .   S
    C411   O572      0.63434      .   S
    C177   O572      0.63434      .   S
    C410   O573      0.63416      .   S
    C176   O573      0.63416      .   S
    C176   O574      0.75208      .   S
    C178   O574      0.75208      .   S
    C176   O575      0.63992      .   S
    C408   O575      0.63992      .   S
    C177   O576      0.75209      .   S
    C179   O576      0.75209      .   S
    C177   O577      0.63964      .   S
    C409   O577      0.63964      .   S
    C190   O578      0.75175      .   S
    C184   O578      0.75175      .   S
    C190   O579      0.63936      .   S
    C414   O579      0.63936      .   S
    C191   O580      0.75166      .   S
    C185   O580      0.75166      .   S
    C191   O581      0.61733      .   S
    C415   O581      0.61733  1_455   S
    C178   O582      0.70158      .   S
    C180   O582      0.70158      .   S
    C179   O583      0.70171      .   S
    C181   O583      0.70171      .   S
    C184   O584      0.70192      .   S
    C182   O584      0.70192      .   S
    C185   O585      0.70185      .   S
    C183   O585      0.70185      .   S
    C331   O586      0.54351  1_655   S
    C126   O586      0.54351      .   S
    C331   O587      0.68976      .   S
    C329   O587      0.68976      .   S
    C330   O588      0.54357      .   S
    C127   O588      0.54357      .   S
    C330   O589      0.68949      .   S
    C328   O589      0.68949      .   S
    C437   O590      0.63599      .   S
    C279   O590      0.63599      .   S
    C437   O591      1.05049  1_565   S
    C13    O591      1.05049      .   S
    C436   O592      0.63597      .   S
    C278   O592      0.63597      .   S
    C436   O593      1.04986  1_565   S
    C12    O593      1.04986      .   S
    C279   O594      0.63607      .   S
    C439   O594      0.63607      .   S
    C278   O595      0.63693      .   S
    C438   O595      0.63693      .   S
    C408   O596      1.01928      .   S
    C0     O596      1.01928      .   S
    C409   O597      1.02342      .   S
    C1     O597      1.02342      .   S
    C180   O598      0.69620      .   S
    C182   O598      0.69620      .   S
    C180   O599      0.54456      .   S
    C24    O599      0.54456      .   S
    C182   O600      0.54468      .   S
    C26    O600      0.54468      .   S
    C181   O601      0.69630      .   S
    C183   O601      0.69630      .   S
    C181   O602      0.54454      .   S
    C25    O602      0.54454      .   S
    C183   O603      0.54476      .   S
    C27    O603      0.54476      .   S
    C390   O604      0.67772      .   S
    C328   O604      0.67772      .   S
    C390   O605      1.02342      .   S
    C12    O605      1.02342      .   S
    C391   O606      0.67770      .   S
    C329   O606      0.67770      .   S
    C391   O607      1.02337      .   S
    C13    O607      1.02337      .   S
    C1     O608      1.03055      .   S
    C414   O608      1.03055      .   S
    C1     O609      1.03276      .   S
    C383   O609      1.03276      .   S
    C1     O610      1.03994      .   S
    C417   O610      1.03994      .   S
    C0     O611      1.08277      .   S
    C415   O611      1.08277      .   S
    C0     O612      1.03117      .   S
    C382   O612      1.03117      .   S
    C0     O613      1.04152      .   S
    C416   O613      1.04152      .   S
    C75    O614      0.54408      .   S
    C259   O614      0.54408      .   S
    C74    O615      0.54486      .   S
    C258   O615      0.54486      .   S
    C329   O616      0.54542      .   S
    C125   O616      0.54542      .   S
    C328   O617      0.54515      .   S
    C124   O617      0.54515      .   S
    C439   O618      1.04521      .   S
    C15    O618      1.04521      .   S
    C438   O619      1.04286      .   S
    C14    O619      1.04286      .   S
    C419   O620      0.63735      .   S
    C193   O620      0.63735      .   S
    C418   O621      0.63753      .   S
    C192   O621      0.63753      .   S
    C131   O622      0.54483      .   S
    C339   O622      0.54483      .   S
    C130   O623      0.54482      .   S
    C338   O623      0.54482      .   S
    C129   O624      0.54502      .   S
    C337   O624      0.54502      .   S
    C128   O625      0.54498      .   S
    C336   O625      0.54498      .   S
    C460   O626      1.04043  1_455   S
    C13    O626      1.04043      .   S
    C460   O627      0.63616      .   S
    C346   O627      0.63616      .   S
    C461   O628      1.04638      .   S
    C12    O628      1.04638      .   S
    C461   O629      0.63635      .   S
    C347   O629      0.63635      .   S
    C13    O630      1.03533      .   S
    C457   O630      1.03533      .   S
    C13    O631      1.04008      .   S
    C453   O631      1.04008      .   S
    C12    O632      1.03064      .   S
    C456   O632      1.03064      .   S
    C12    O633      1.04086      .   S
    C452   O633      1.04086      .   S
    C259   O634      0.67675      .   S
    C383   O634      0.67675      .   S
    C259   O635      0.69158      .   S
    C257   O635      0.69158      .   S
    C258   O636      0.67687      .   S
    C382   O636      0.67687      .   S
    C258   O637      0.69086      .   S
    C256   O637      0.69086      .   S
    C339   O638      0.69627      .   S
    C337   O638      0.69627      .   S
    C339   O639      0.70206      .   S
    C341   O639      0.70206      .   S
    C337   O640      0.70138      .   S
    C335   O640      0.70138      .   S
    C338   O641      0.69613      .   S
    C336   O641      0.69613      .   S
    C338   O642      0.70214      .   S
    C340   O642      0.70214      .   S
    C336   O643      0.70156      .   S
    C334   O643      0.70156      .   S
    C382   O644      0.67716      .   S
    C260   O644      0.67716      .   S
    C383   O645      0.67640      .   S
    C261   O645      0.67640      .   S
    C457   O646      0.63782      .   S
    C333   O646      0.63782      .   S
    C456   O647      0.63862      .   S
    C332   O647      0.63862      .   S
    C193   O648      0.63713      .   S
    C417   O648      0.63713      .   S
    C193   O649      0.75051      .   S
    C195   O649      0.75051      .   S
    C192   O650      0.63665      .   S
    C416   O650      0.63665      .   S
    C192   O651      0.75025      .   S
    C194   O651      0.75025      .   S
    C143   O652      0.54455      .   S
    C357   O652      0.54455      .   S
    C142   O653      0.54453      .   S
    C356   O653      0.54453      .   S
    C333   O654      0.75193      .   S
    C335   O654      0.75193      .   S
    C333   O655      0.63495  1_545   S
    C459   O655      0.63495      .   S
    C347   O656      0.75173      .   S
    C341   O656      0.75173      .   S
    C347   O657      0.63772  1_545   S
    C463   O657      0.63772      .   S
    C341   O658      0.70117  1_545   S
    C343   O658      0.70117      .   S
    C335   O659      0.70117  1_545   S
    C345   O659      0.70117      .   S
    C346   O660      0.75188      .   S
    C340   O660      0.75188      .   S
    C346   O661      0.63753  1_545   S
    C462   O661      0.63753      .   S
    C332   O662      0.75218      .   S
    C334   O662      0.75218      .   S
    C332   O663      0.63466  1_545   S
    C458   O663      0.63466      .   S
    C340   O664      0.70136  1_545   S
    C342   O664      0.70136      .   S
    C334   O665      0.70070  1_545   S
    C344   O665      0.70070      .   S
    C73    O666      0.54483      .   S
    C257   O666      0.54483      .   S
    C72    O667      0.54483      .   S
    C256   O667      0.54483      .   S
    C257   O668      0.70513      .   S
    C255   O668      0.70513      .   S
    C256   O669      0.70511      .   S
    C254   O669      0.70511      .   S
    C39    O670      0.54359      .   S
    C205   O670      0.54359      .   S
    C38    O671      0.54447      .   S
    C204   O671      0.54447      .   S
    C459   O672      1.03876      .   S
    C15    O672      1.03876      .   S
    C458   O673      1.04376      .   S
    C14    O673      1.04376      .   S
    C260   O674      0.54519      .   S
    C76    O674      0.54519      .   S
    C260   O675      0.69199      .   S
    C262   O675      0.69199      .   S
    C261   O676      0.54518      .   S
    C77    O676      0.54518      .   S
    C261   O677      0.69208      .   S
    C263   O677      0.69208      .   S
    C345   O678      0.69568      .   S
    C343   O678      0.69568      .   S
    C345   O679      0.54447      .   S
    C135   O679      0.54447      .   S
    C343   O680      0.54444      .   S
    C133   O680      0.54444      .   S
    C344   O681      0.69601      .   S
    C342   O681      0.69601      .   S
    C344   O682      0.54485      .   S
    C134   O682      0.54485      .   S
    C342   O683      0.54431      .   S
    C132   O683      0.54431      .   S
    C15    O684      1.03674      .   S
    C462   O684      1.03674  1_455   S
    C15    O685      1.02442      .   S
    C393   O685      1.02442      .   S
    C15    O686      1.03616  1_565   S
    C455   O686      1.03616      .   S
    C463   O687      1.03532      .   S
    C14    O687      1.03532      .   S
    C14    O688      1.02472      .   S
    C392   O688      1.02472      .   S
    C14    O689      1.03527  1_565   S
    C454   O689      1.03527      .   S
    C141   O690      0.54529      .   S
    C355   O690      0.54529      .   S
    C140   O691      0.54530      .   S
    C354   O691      0.54530      .   S
    C357   O692      0.69079      .   S
    C355   O692      0.69079      .   S
    C357   O693      0.67646      .   S
    C393   O693      0.67646      .   S
    C356   O694      0.69082      .   S
    C354   O694      0.69082      .   S
    C356   O695      0.67648      .   S
    C392   O695      0.67648      .   S
    C195   O696      0.70144      .   S
    C205   O696      0.70144      .   S
    C195   O697      0.70184      .   S
    C197   O697      0.70184      .   S
    C194   O698      0.70120      .   S
    C204   O698      0.70120      .   S
    C194   O699      0.70172      .   S
    C196   O699      0.70172      .   S
    C205   O700      0.69566      .   S
    C203   O700      0.69566      .   S
    C204   O701      0.69514      .   S
    C202   O701      0.69514      .   S
    C453   O702      0.63751      .   S
    C311   O702      0.63751      .   S
    C452   O703      0.63736      .   S
    C310   O703      0.63736      .   S
    C255   O704      0.70448      .   S
    C263   O704      0.70448      .   S
    C255   O705      0.68800      .   S
    C381   O705      0.68800      .   S
    C254   O706      0.70450      .   S
    C262   O706      0.70450      .   S
    C254   O707      0.68788      .   S
    C380   O707      0.68788      .   S
    C262   O708      0.54354      .   S
    C78    O708      0.54354      .   S
    C263   O709      0.54400      .   S
    C79    O709      0.54400      .   S
    C355   O710      0.70309      .   S
    C353   O710      0.70309      .   S
    C354   O711      0.70306      .   S
    C352   O711      0.70306      .   S
    C393   O712      0.67534      .   S
    C349   O712      0.67534      .   S
    C392   O713      0.67524      .   S
    C348   O713      0.67524      .   S
    C87    O714      0.51246      .   S
    C381   O714      0.51246      .   S
    C86    O715      0.51245      .   S
    C380   O715      0.51245      .   S
    C381   O716      0.69512      .   S
    C379   O716      0.69512      .   S
    C380   O717      0.69527      .   S
    C378   O717      0.69527      .   S
    C311   O718      0.63684      .   S
    C455   O718      0.63684      .   S
    C311   O719      0.75074      .   S
    C305   O719      0.75074      .   S
    C310   O720      0.63696      .   S
    C454   O720      0.63696      .   S
    C310   O721      0.75104      .   S
    C304   O721      0.75104      .   S
    C33    O722      0.54482      .   S
    C197   O722      0.54482      .   S
    C67    O723      0.54334      .   S
    C247   O723      0.54334      .   S
    C66    O724      0.54330      .   S
    C246   O724      0.54330      .   S
    C32    O725      0.54486      .   S
    C196   O725      0.54486      .   S
    C197   O726      0.69616      .   S
    C199   O726      0.69616      .   S
    C196   O727      0.69600      .   S
    C198   O727      0.69600      .   S
    C203   O728      0.54419      .   S
    C37    O728      0.54419      .   S
    C203   O729      0.70113      .   S
    C201   O729      0.70113      .   S
    C202   O730      0.54399      .   S
    C36    O730      0.54399      .   S
    C202   O731      0.70081      .   S
    C200   O731      0.70081      .   S
    C107   O732      0.54489      .   S
    C303   O732      0.54489      .   S
    C106   O733      0.54498      .   S
    C302   O733      0.54498      .   S
    C157   O734      0.51221      .   S
    C395   O734      0.51221      .   S
    C156   O735      0.51252      .   S
    C394   O735      0.51252      .   S
    C353   O736      0.69497      .   S
    C395   O736      0.69497      .   S
    C353   O737      0.70093      .   S
    C351   O737      0.70093      .   S
    C352   O738      0.69563      .   S
    C394   O738      0.69563      .   S
    C352   O739      0.70092      .   S
    C350   O739      0.70092      .   S
    C349   O740      0.54437      .   S
    C137   O740      0.54437      .   S
    C349   O741      0.69287      .   S
    C351   O741      0.69287      .   S
    C348   O742      0.54436      .   S
    C136   O742      0.54436      .   S
    C348   O743      0.69298      .   S
    C350   O743      0.69298      .   S
    C247   O744      0.69259      .   S
    C245   O744      0.69259      .   S
    C247   O745      0.70090      .   S
    C249   O745      0.70090      .   S
    C246   O746      0.69287      .   S
    C244   O746      0.69287      .   S
    C246   O747      0.69928      .   S
    C248   O747      0.69928      .   S
    C379   O748      0.69570      .   S
    C249   O748      0.69570      .   S
    C379   O749      0.51256      .   S
    C85    O749      0.51256      .   S
    C378   O750      0.68900      .   S
    C248   O750      0.68900      .   S
    C378   O751      0.51252      .   S
    C84    O751      0.51252      .   S
    C199   O752      0.70166      .   S
    C201   O752      0.70166      .   S
    C199   O753      0.54488      .   S
    C35    O753      0.54488      .   S
    C305   O754      0.70161      .   S
    C303   O754      0.70161      .   S
    C305   O755      0.70104      .   S
    C307   O755      0.70104      .   S
    C65    O756      0.54428      .   S
    C245   O756      0.54428      .   S
    C304   O757      0.70164      .   S
    C302   O757      0.70164      .   S
    C304   O758      0.70113      .   S
    C306   O758      0.70113      .   S
    C64    O759      0.54438      .   S
    C244   O759      0.54438      .   S
    C198   O760      0.70164      .   S
    C200   O760      0.70164      .   S
    C198   O761      0.54507      .   S
    C34    O761      0.54507      .   S
    C303   O762      0.69611      .   S
    C301   O762      0.69611      .   S
    C201   O763      0.75104      .   S
    C207   O763      0.75104      .   S
    C200   O764      0.75095      .   S
    C206   O764      0.75095      .   S
    C302   O765      0.69616      .   S
    C300   O765      0.69616      .   S
    C395   O766      0.69605      .   S
    C397   O766      0.69605      .   S
    C394   O767      0.69521      .   S
    C396   O767      0.69521      .   S
    C351   O768      0.54330      .   S
    C139   O768      0.54330      .   S
    C350   O769      0.54325      .   S
    C138   O769      0.54325      .   S
    C245   O770      0.67573      .   S
    C377   O770      0.67573      .   S
    C244   O771      0.67525      .   S
    C376   O771      0.67525      .   S
    C248   O772      0.71157      .   S
    C250   O772      0.71157      .   S
    C249   O773      0.70315      .   S
    C251   O773      0.70315      .   S
    C108   O774      0.54394      .   S
    C306   O774      0.54394      .   S
    C109   O775      0.54401      .   S
    C307   O775      0.54401      .   S
    C307   O776      0.69511      .   S
    C309   O776      0.69511      .   S
    C306   O777      0.69511      .   S
    C308   O777      0.69511      .   S
    C301   O778      0.54485      .   S
    C105   O778      0.54485      .   S
    C301   O779      0.70165      .   S
    C299   O779      0.70165      .   S
    C300   O780      0.54486      .   S
    C104   O780      0.54486      .   S
    C300   O781      0.70173      .   S
    C298   O781      0.70173      .   S
    C150   O782      0.54331      .   S
    C366   O782      0.54331      .   S
    C151   O783      0.54398      .   S
    C367   O783      0.54398      .   S
    C423   O784      0.63693      .   S
    C207   O784      0.63693      .   S
    C423   O785      1.03529      .   S
    C7     O785      1.03529  1_545   S
    C422   O786      0.63687      .   S
    C206   O786      0.63687      .   S
    C422   O787      1.03615      .   S
    C6     O787      1.03615  1_545   S
    C207   O788      0.63746      .   S
    C421   O788      0.63746      .   S
    C206   O789      0.63750      .   S
    C420   O789      0.63750      .   S
    C397   O790      0.51245      .   S
    C159   O790      0.51245      .   S
    C397   O791      0.68784      .   S
    C359   O791      0.68784      .   S
    C396   O792      0.51245      .   S
    C158   O792      0.51245      .   S
    C396   O793      0.68798      .   S
    C358   O793      0.68798      .   S
    C377   O794      0.67647      .   S
    C253   O794      0.67647      .   S
    C377   O795      1.02472      .   S
    C7     O795      1.02472      .   S
    C376   O796      0.67646      .   S
    C252   O796      0.67646      .   S
    C376   O797      1.02435      .   S
    C6     O797      1.02435      .   S
    C251   O798      0.69073      .   S
    C253   O798      0.69073      .   S
    C251   O799      0.54530      .   S
    C69    O799      0.54530      .   S
    C250   O800      0.69087      .   S
    C252   O800      0.69087      .   S
    C250   O801      0.54533      .   S
    C68    O801      0.54533      .   S
    C366   O802      0.70441      .   S
    C358   O802      0.70441      .   S
    C366   O803      0.69287      .   S
    C364   O803      0.69287      .   S
    C367   O804      0.70448      .   S
    C359   O804      0.70448      .   S
    C367   O805      0.69151      .   S
    C365   O805      0.69151      .   S
    C359   O806      0.70518      .   S
    C361   O806      0.70518      .   S
    C358   O807      0.70510      .   S
    C360   O807      0.70510      .   S
    C421   O808      1.04088      .   S
    C5     O808      1.04088      .   S
    C420   O809      1.04002      .   S
    C4     O809      1.04002      .   S
    C309   O810      0.70119      .   S
    C299   O810      0.70119      .   S
    C309   O811      0.54439      .   S
    C111   O811      0.54439      .   S
    C308   O812      0.70121      .   S
    C298   O812      0.70121      .   S
    C308   O813      0.54437      .   S
    C110   O813      0.54437      .   S
    C299   O814      0.75032      .   S
    C297   O814      0.75032      .   S
    C298   O815      0.75053      .   S
    C296   O815      0.75053      .   S
    C61    O816      0.54430      .   S
    C239   O816      0.54430      .   S
    C63    O817      0.54456      .   S
    C241   O817      0.54456      .   S
    C60    O818      0.54487      .   S
    C238   O818      0.54487      .   S
    C253   O819      0.54463      .   S
    C71    O819      0.54463      .   S
    C62    O820      0.54444      .   S
    C240   O820      0.54444      .   S
    C252   O821      0.54464      .   S
    C70    O821      0.54464      .   S
    C431   O822      1.03677  1_655   S
    C6     O822      1.03677      .   S
    C431   O823      0.63757      .   S
    C243   O823      0.63757  1_565   S
    C7     O824      1.03530      .   S
    C430   O824      1.03530      .   S
    C7     O825      1.04374      .   S
    C427   O825      1.04374      .   S
    C7     O826      1.04289      .   S
    C407   O826      1.04289      .   S
    C430   O827      0.63780      .   S
    C242   O827      0.63780  1_565   S
    C6     O828      1.03880      .   S
    C426   O828      1.03880      .   S
    C6     O829      1.04462      .   S
    C406   O829      1.04462      .   S
    C239   O830      0.69597      .   S
    C241   O830      0.69597      .   S
    C239   O831      0.70138      .   S
    C237   O831      0.70138  1_565   S
    C148   O832      0.54519      .   S
    C364   O832      0.54519      .   S
    C241   O833      0.70112      .   S
    C231   O833      0.70112  1_565   S
    C149   O834      0.54522      .   S
    C365   O834      0.54522      .   S
    C238   O835      0.69569      .   S
    C240   O835      0.69569      .   S
    C238   O836      0.70133      .   S
    C236   O836      0.70133  1_565   S
    C240   O837      0.70109      .   S
    C230   O837      0.70109  1_565   S
    C364   O838      0.67577      .   S
    C398   O838      0.67577      .   S
    C365   O839      0.67692      .   S
    C399   O839      0.67692      .   S
    C427   O840      0.63467      .   S
    C229   O840      0.63467  1_565   S
    C426   O841      0.63493      .   S
    C228   O841      0.63493  1_565   S
    C361   O842      0.54484      .   S
    C145   O842      0.54484      .   S
    C361   O843      0.69054      .   S
    C363   O843      0.69054      .   S
    C360   O844      0.54482      .   S
    C144   O844      0.54482      .   S
    C360   O845      0.69087      .   S
    C362   O845      0.69087      .   S
    C231   O846      0.75219      .   S
    C229   O846      0.75219      .   S
    C231   O847      0.70153      .   S
    C233   O847      0.70153      .   S
    C237   O848      0.75189      .   S
    C243   O848      0.75189      .   S
    C237   O849      0.70172      .   S
    C235   O849      0.70172      .   S
    C229   O850      0.63815      .   S
    C425   O850      0.63815      .   S
    C243   O851      0.63617      .   S
    C429   O851      0.63617      .   S
    C230   O852      0.75194      .   S
    C228   O852      0.75194      .   S
    C230   O853      0.70148      .   S
    C232   O853      0.70148      .   S
    C236   O854      0.75172      .   S
    C242   O854      0.75172      .   S
    C236   O855      0.70206      .   S
    C234   O855      0.70206      .   S
    C242   O856      0.63588      .   S
    C428   O856      0.63588      .   S
    C228   O857      0.63788      .   S
    C424   O857      0.63788      .   S
    C449   O858      0.63694      .   S
    C297   O858      0.63694      .   S
    C449   O859      1.04204      .   S
    C9     O859      1.04204      .   S
    C448   O860      0.63711      .   S
    C296   O860      0.63711      .   S
    C448   O861      1.03973      .   S
    C8     O861      1.03973      .   S
    C297   O862      0.63755      .   S
    C451   O862      0.63755      .   S
    C296   O863      0.63729      .   S
    C450   O863      0.63729      .   S
    C425   O864      1.03078      .   S
    C5     O864      1.03078      .   S
    C424   O865      1.03531      .   S
    C4     O865      1.03531      .   S
    C53    O866      0.54543      .   S
    C225   O866      0.54543      .   S
    C52    O867      0.54510      .   S
    C224   O867      0.54510      .   S
    C398   O868      0.67675      .   S
    C362   O868      0.67675      .   S
    C398   O869      1.03298      .   S
    C8     O869      1.03298      .   S
    C399   O870      0.67684      .   S
    C363   O870      0.67684      .   S
    C399   O871      1.03211      .   S
    C9     O871      1.03211      .   S
    C233   O872      0.69615      .   S
    C235   O872      0.69615      .   S
    C233   O873      0.54498      .   S
    C57    O873      0.54498      .   S
    C235   O874      0.54516      .   S
    C59    O874      0.54516      .   S
    C232   O875      0.69627      .   S
    C234   O875      0.69627      .   S
    C232   O876      0.54502      .   S
    C56    O876      0.54502      .   S
    C234   O877      0.54486      .   S
    C58    O877      0.54486      .   S
    C363   O878      0.54516      .   S
    C147   O878      0.54516      .   S
    C362   O879      0.54484      .   S
    C146   O879      0.54484      .   S
    C5     O880      1.04635      .   S
    C428   O880      1.04635      .   S
    C5     O881      1.02348      .   S
    C375   O881      1.02348      .   S
    C5     O882      1.04992      .   S
    C405   O882      1.04992  1_545   S
    C4     O883      1.04044      .   S
    C429   O883      1.04044  1_655   S
    C4     O884      1.02336      .   S
    C374   O884      1.02336      .   S
    C4     O885      1.05047      .   S
    C404   O885      1.05047  1_545   S
    C451   O886      1.02504      .   S
    C11    O886      1.02504      .   S
    C450   O887      1.02671      .   S
    C10    O887      1.02671      .   S
    C407   O888      0.63692      .   S
    C175   O888      0.63692      .   S
    C406   O889      0.63694      .   S
    C174   O889      0.63694      .   S
    C225   O890      0.67769      .   S
    C375   O890      0.67769      .   S
    C225   O891      0.69009      .   S
    C227   O891      0.69009      .   S
    C224   O892      0.67769      .   S
    C374   O892      0.67769      .   S
    C224   O893      0.68997      .   S
    C226   O893      0.68997      .   S
    C98    O894      0.54496      .   S
    C286   O894      0.54496      .   S
    C99    O895      0.54505      .   S
    C287   O895      0.54505      .   S
    C96    O896      0.54451      .   S
    C284   O896      0.54451      .   S
    C97    O897      0.54456      .   S
    C285   O897      0.54456      .   S
    C446   O898      1.02705      .   S
    C9     O898      1.02705      .   S
    C446   O899      0.63895  1_655   S
    C294   O899      0.63895      .   S
    C447   O900      1.03105      .   S
    C8     O900      1.03105      .   S
    C447   O901      0.63916      .   S
    C295   O901      0.63916      .   S
    C9     O902      1.02144      .   S
    C441   O902      1.02144      .   S
    C9     O903      1.07815      .   S
    C433   O903      1.07815      .   S
    C8     O904      1.02274      .   S
    C440   O904      1.02274      .   S
    C8     O905      1.07630      .   S
    C432   O905      1.07630      .   S
    C374   O906      0.67599      .   S
    C222   O906      0.67599      .   S
    C375   O907      0.67595      .   S
    C223   O907      0.67595      .   S
    C286   O908      0.69625      .   S
    C284   O908      0.69625      .   S
    C286   O909      0.70181      .   S
    C288   O909      0.70181      .   S
    C284   O910      0.70170      .   S
    C282   O910      0.70170      .   S
    C287   O911      0.69623      .   S
    C285   O911      0.69623      .   S
    C287   O912      0.70193      .   S
    C289   O912      0.70193      .   S
    C285   O913      0.70161      .   S
    C283   O913      0.70161      .   S
    C54    O914      0.54356      .   S
    C227   O914      0.54356      .   S
    C55    O915      0.54351      .   S
    C226   O915      0.54351  1_455   S
    C440   O916      0.63980      .   S
    C280   O916      0.63980      .   S
    C441   O917      0.63983      .   S
    C281   O917      0.63983      .   S
    C175   O918      0.63596      .   S
    C405   O918      0.63596      .   S
    C175   O919      0.75310      .   S
    C169   O919      0.75310      .   S
    C174   O920      0.63597      .   S
    C404   O920      0.63597      .   S
    C174   O921      0.75316      .   S
    C168   O921      0.75316      .   S
    C227   O922      0.70627      .   S
    C219   O922      0.70627      .   S
    C226   O923      0.70630      .   S
    C218   O923      0.70630      .   S
    C288   O924      0.75148      .   S
    C294   O924      0.75148      .   S
    C288   O925      0.70163      .   S
    C290   O925      0.70163      .   S
    C289   O926      0.75162      .   S
    C295   O926      0.75162      .   S
    C289   O927      0.70155      .   S
    C291   O927      0.70155      .   S
    C282   O928      0.75222      .   S
    C280   O928      0.75222      .   S
    C282   O929      0.70166      .   S
    C292   O929      0.70166      .   S
    C283   O930      0.75222      .   S
    C281   O930      0.75222      .   S
    C283   O931      0.70181      .   S
    C293   O931      0.70181      .   S
    C294   O932      0.63542      .   S
    C444   O932      0.63542  1_655   S
    C295   O933      0.63562      .   S
    C445   O933      0.63562      .   S
    C280   O934      0.63418      .   S
    C442   O934      0.63418      .   S
    C281   O935      0.63421      .   S
    C443   O935      0.63421      .   S
    C119   O936      0.54387      .   S
    C321   O936      0.54387      .   S
    C118   O937      0.54453      .   S
    C320   O937      0.54453      .   S
    C443   O938      1.03786      .   S
    C11    O938      1.03786      .   S
    C442   O939      1.03913      .   S
    C10    O939      1.03913      .   S
    C21    O940      0.54445      .   S
    C171   O940      0.54445      .   S
    C20    O941      0.54446      .   S
    C170   O941      0.54446      .   S
    C293   O942      0.69600      .   S
    C291   O942      0.69600      .   S
    C293   O943      0.54457      .   S
    C103   O943      0.54457      .   S
    C291   O944      0.54408      .   S
    C101   O944      0.54408      .   S
    C292   O945      0.69595      .   S
    C290   O945      0.69595      .   S
    C292   O946      0.54460      .   S
    C102   O946      0.54460      .   S
    C290   O947      0.54405      .   S
    C100   O947      0.54405      .   S
    C445   O948      1.05771      .   S
    C10    O948      1.05771      .   S
    C444   O949      1.06437      .   S
    C11    O949      1.06437      .   S
    C222   O950      0.54507      .   S
    C50    O950      0.54507      .   S
    C222   O951      0.69185      .   S
    C220   O951      0.69185      .   S
    C223   O952      0.54506      .   S
    C51    O952      0.54506      .   S
    C223   O953      0.69229      .   S
    C221   O953      0.69229      .   S
    C11    O954      1.02021      .   S
    C385   O954      1.02021      .   S
    C11    O955      1.04376      .   S
    C435   O955      1.04376      .   S
    C10    O956      1.02036      .   S
    C384   O956      1.02036      .   S
    C10    O957      1.04507      .   S
    C434   O957      1.04507      .   S
    C321   O958      0.67778      .   S
    C385   O958      0.67778      .   S
    C321   O959      0.69088      .   S
    C319   O959      0.69088      .   S
    C320   O960      0.67775      .   S
    C384   O960      0.67775      .   S
    C320   O961      0.69027      .   S
    C318   O961      0.69027      .   S
    C169   O962      0.70093      .   S
    C171   O962      0.70093      .   S
    C169   O963      0.70184      .   S
    C167   O963      0.70184      .   S
    C219   O964      0.70502      .   S
    C221   O964      0.70502      .   S
    C219   O965      0.68605      .   S
    C373   O965      0.68605      .   S
    C168   O966      0.70092      .   S
    C170   O966      0.70092      .   S
    C168   O967      0.70196      .   S
    C166   O967      0.70196      .   S
    C218   O968      0.70502      .   S
    C220   O968      0.70502      .   S
    C218   O969      0.68599      .   S
    C372   O969      0.68599      .   S
    C171   O970      0.69539      .   S
    C173   O970      0.69539      .   S
    C170   O971      0.69572      .   S
    C172   O971      0.69572      .   S
    C117   O972      0.54490      .   S
    C319   O972      0.54490      .   S
    C116   O973      0.54489      .   S
    C318   O973      0.54489      .   S
    C433   O974      0.64208      .   S
    C265   O974      0.64208      .   S
    C432   O975      0.64216      .   S
    C264   O975      0.64216      .   S
    C220   O976      0.54426      .   S
    C48    O976      0.54426      .   S
    C221   O977      0.54386      .   S
    C49    O977      0.54386      .   S
    C385   O978      0.67625      .   S
    C313   O978      0.67625      .   S
    C384   O979      0.67625      .   S
    C312   O979      0.67625      .   S
    C83    O980      0.51977      .   S
    C373   O980      0.51977      .   S
    C82    O981      0.51987  1_655   S
    C372   O981      0.51987      .   S
    C319   O982      0.70395      .   S
    C317   O982      0.70395      .   S
    C318   O983      0.70393      .   S
    C316   O983      0.70393      .   S
    C373   O984      0.69839      .   S
    C371   O984      0.69839      .   S
    C372   O985      0.69848      .   S
    C370   O985      0.69848      .   S
    C435   O986      0.63315      .   S
    C265   O986      0.63315      .   S
    C434   O987      0.63311      .   S
    C264   O987      0.63311      .   S
    C265   O988      0.75026      .   S
    C267   O988      0.75026      .   S
    C264   O989      0.74980      .   S
    C266   O989      0.74980      .   S
    C19    O990      0.54473      .   S
    C167   O990      0.54473      .   S
    C18    O991      0.54472      .   S
    C166   O991      0.54472      .   S
    C43    O992      0.54295      .   S
    C211   O992      0.54295      .   S
    C42    O993      0.54294      .   S
    C210   O993      0.54294      .   S
    C167   O994      0.69598      .   S
    C165   O994      0.69598      .   S
    C166   O995      0.69596      .   S
    C164   O995      0.69596      .   S
    C173   O996      0.54631      .   S
    C23    O996      0.54631      .   S
    C172   O997      0.54433      .   S
    C22    O997      0.54433      .   S
    C313   O998      0.54436      .   S
    C113   O998      0.54436      .   S
    C312   O999      0.54436      .   S
    C112   O999      0.54436      .   S
    C0     O1000     1.43750      .   S
    C2     O1000     1.43750      .   S
    C1     O1001     1.44049      .   S
    C3     O1001     1.44049      .   S
    C4     O1002     1.44083      .   S
    C6     O1002     1.44083  1_545   S
    C5     O1003     1.44257      .   S
    C7     O1003     1.44257  1_545   S
    C8     O1004     1.44084      .   S
    C10    O1004     1.44084      .   S
    C9     O1005     1.43740      .   S
    C11    O1005     1.43740      .   S
    C12    O1006     1.44256      .   S
    C14    O1006     1.44256  1_565   S
    C13    O1007     1.44089      .   S
    C15    O1007     1.44089  1_565   S
