# CIF file generated by openbabel 2.4.90, see http://openbabel.sf.net
data_I
_chemical_name_common ''
_cell_length_a 22.087
_cell_length_b 17.892
_cell_length_c 20.541
_cell_angle_alpha 110.258
_cell_angle_beta 93.396
_cell_angle_gamma 89.007
_space_group_name_H-M_alt 'P 1'
_space_group_name_Hall 'P 1'
loop_
    _symmetry_equiv_pos_as_xyz
    x,y,z
loop_
    _atom_site_label
    _atom_site_type_symbol
    _atom_site_fract_x
    _atom_site_fract_y
    _atom_site_fract_z
    _atom_site_occupancy
    N0      N    0.58664   0.24485   0.93647   1.000
    N1      N    0.08577   0.24497   0.93691   1.000
    N2      N    0.65543   0.51164   0.80691   1.000
    N3      N    0.15543   0.51107   0.80665   1.000
    N4      N    0.42439   0.25602   0.56271   1.000
    N5      N    0.92424   0.25618   0.56218   1.000
    N6      N    0.84443   0.48890   0.19337   1.000
    N7      N    0.94030   0.24779   0.05464   1.000
    N8      N    0.38876   0.74415   0.54752   1.000
    N9      N    0.88909   0.74387   0.54734   1.000
    N10     N    0.11097   0.25614   0.45261   1.000
    N11     N    0.61128   0.25587   0.45245   1.000
    N12     N    0.18365   0.00741   0.31451   1.000
    N13     N    0.68376   0.00711   0.31362   1.000
    N14     N    0.05942   0.75225   0.94536   1.000
    N15     N    0.55900   0.75233   0.94516   1.000
    N16     N    0.07579   0.74385   0.43782   1.000
    N17     N    0.34473   0.48843   0.19304   1.000
    N18     N    0.57564   0.74400   0.43726   1.000
    N19     N    0.41339   0.75519   0.06347   1.000
    N20     N    0.91427   0.75506   0.06303   1.000
    N21     N    0.44105   0.24769   0.05483   1.000
    N22     N    0.31626   0.99291   0.68636   1.000
    N23     N    0.81637   0.99262   0.68548   1.000
    Zr24    Zr   0.40498   0.50632   0.80936   1.000
    O25     O    0.39911   0.58870   0.72727   1.000
    O26     O    0.47865   0.52044   0.79953   1.000
    O27     O    0.33074   0.52164   0.80187   1.000
    O28     O    0.40851   0.59284   0.87684   1.000
    O29     O    0.40859   0.44419   0.72839   1.000
    O30     O    0.40649   0.56775   0.89248   1.000
    O31     O    0.41535   0.41829   0.88678   1.000
    O32     O    0.47968   0.49736   0.81756   1.000
    O33     O    0.33157   0.49407   0.81510   1.000
    O34     O    0.41155   0.41935   0.74464   1.000
    Zr35    Zr   0.43350   0.00642   0.31418   1.000
    O36     O    0.42550   0.94421   0.23208   1.000
    O37     O    0.43504   0.08965   0.23288   1.000
    O38     O    0.50667   0.01727   0.30491   1.000
    O39     O    0.43219   0.09313   0.37973   1.000
    O40     O    0.35865   0.02106   0.30724   1.000
    O41     O    0.36034   0.99396   0.32117   1.000
    O42     O    0.50863   0.99434   0.32308   1.000
    O43     O    0.42949   0.91917   0.24801   1.000
    O44     O    0.42209   0.91721   0.38823   1.000
    O45     O    0.43186   0.06805   0.39577   1.000
    Zr46    Zr   0.93351   0.00628   0.31395   1.000
    O47     O    0.86025   0.99367   0.32058   1.000
    O48     O    0.92973   0.91901   0.24770   1.000
    O49     O    0.93156   0.06799   0.39546   1.000
    O50     O    0.00843   0.99443   0.32321   1.000
    O51     O    0.92205   0.91703   0.38799   1.000
    O52     O    0.92595   0.94405   0.23181   1.000
    O53     O    0.93237   0.09302   0.37945   1.000
    O54     O    0.00678   0.01723   0.30496   1.000
    O55     O    0.85883   0.02088   0.30682   1.000
    O56     O    0.93498   0.08960   0.23270   1.000
    Zr57    Zr   0.56652   0.99360   0.68581   1.000
    O58     O    0.49138   0.00568   0.67691   1.000
    O59     O    0.63968   0.00606   0.67882   1.000
    O60     O    0.57793   0.08282   0.61176   1.000
    O61     O    0.56816   0.93197   0.60422   1.000
    O62     O    0.57053   0.08085   0.75196   1.000
    O63     O    0.49335   0.98275   0.69507   1.000
    O64     O    0.56499   0.91037   0.76711   1.000
    O65     O    0.64136   0.97897   0.69274   1.000
    O66     O    0.56783   0.90689   0.62026   1.000
    O67     O    0.57452   0.05582   0.76790   1.000
    Zr68    Zr   0.06651   0.99375   0.68604   1.000
    O69     O    0.99324   0.98280   0.69503   1.000
    O70     O    0.06497   0.91043   0.76730   1.000
    O71     O    0.14119   0.97915   0.69317   1.000
    O72     O    0.07407   0.05598   0.76816   1.000
    O73     O    0.06765   0.90701   0.62054   1.000
    O74     O    0.13977   0.00636   0.67941   1.000
    O75     O    0.99159   0.00559   0.67677   1.000
    O76     O    0.07029   0.08102   0.75227   1.000
    O77     O    0.07798   0.08300   0.61199   1.000
    O78     O    0.06846   0.93204   0.60454   1.000
    Zr79    Zr   0.90483   0.50603   0.80894   1.000
    O80     O    0.91500   0.41813   0.88639   1.000
    O81     O    0.91149   0.41938   0.74415   1.000
    O82     O    0.90665   0.56756   0.89200   1.000
    O83     O    0.83138   0.49394   0.81487   1.000
    O84     O    0.97960   0.49698   0.81730   1.000
    O85     O    0.90833   0.44405   0.72784   1.000
    O86     O    0.83074   0.52156   0.80177   1.000
    O87     O    0.90881   0.59262   0.87642   1.000
    O88     O    0.97854   0.51977   0.79909   1.000
    O89     O    0.89917   0.58843   0.72699   1.000
    Zr90    Zr   0.59534   0.49373   0.19063   1.000
    O91     O    0.59159   0.55585   0.27158   1.000
    O92     O    0.52156   0.47961   0.20044   1.000
    O93     O    0.60107   0.41134   0.27269   1.000
    O94     O    0.59167   0.40721   0.12313   1.000
    O95     O    0.66940   0.47839   0.19811   1.000
    O96     O    0.58492   0.58175   0.11322   1.000
    O97     O    0.52063   0.50270   0.18242   1.000
    O98     O    0.58871   0.58069   0.25534   1.000
    O99     O    0.59377   0.43229   0.10750   1.000
    O100    O    0.66867   0.50598   0.18491   1.000
    Zr101   Zr   0.09542   0.49400   0.19108   1.000
    O102    O    0.02103   0.48024   0.20093   1.000
    O103    O    0.16951   0.47847   0.19821   1.000
    O104    O    0.09188   0.55598   0.27216   1.000
    O105    O    0.09140   0.40741   0.12357   1.000
    O106    O    0.10105   0.41159   0.27300   1.000
    O107    O    0.02046   0.50302   0.18269   1.000
    O108    O    0.08865   0.58064   0.25586   1.000
    O109    O    0.08507   0.58189   0.11361   1.000
    O110    O    0.16880   0.50609   0.18513   1.000
    O111    O    0.09349   0.43247   0.10799   1.000
loop_
    _geom_bond_atom_site_label_1
    _geom_bond_atom_site_label_2
    _geom_bond_distance
    _geom_bond_site_symmetry_2
    _ccdc_geom_bond_type
    Zr24   O25       2.59251      .   S
    N8     O25       5.33007      .   S
    Zr24   O26       1.68536      .   S
    N2     O26       3.90106      .   S
    Zr24   O27       1.66470      .   S
    N3     O27       3.88870      .   S
    Zr24   O28       1.68202      .   S
    N19    O28       3.92381  1_554   S
    Zr24   O29       1.65540      .   S
    N4     O29       3.89928      .   S
    Zr24   O30       1.67908      .   S
    N19    O30       3.92475  1_554   S
    Zr24   O31       2.59630      .   S
    N21    O31       5.34407  1_554   S
    Zr24   O32       1.65908      .   S
    N2     O32       3.91856      .   S
    Zr24   O33       1.65641      .   S
    N3     O33       3.89538      .   S
    Zr24   O34       1.67093      .   S
    N4     O34       3.88848      .   S
    Zr35   O36       1.66913  1_545   S
    N19    O36       3.91332      .   S
    Zr35   O37       2.59588      .   S
    N21    O37       5.34988      .   S
    Zr35   O38       1.66096      .   S
    N13    O38       3.90875      .   S
    Zr35   O39       1.66646      .   S
    N4     O39       3.88906      .   S
    Zr35   O40       1.67471      .   S
    N12    O40       3.89224      .   S
    Zr35   O41       1.65637  1_545   S
    N12    O41       3.90309  1_545   S
    Zr35   O42       1.67719  1_545   S
    N13    O42       3.89891  1_545   S
    Zr35   O43       1.67723  1_545   S
    N19    O43       3.90879      .   S
    Zr35   O44       2.58174  1_545   S
    N8     O44       5.31193      .   S
    Zr35   O45       1.65889      .   S
    N4     O45       3.89341      .   S
    Zr46   O47       1.65772  1_545   S
    N13    O47       3.89863  1_545   S
    Zr46   O48       1.67830  1_545   S
    N20    O48       3.90985      .   S
    Zr46   O49       1.65849      .   S
    N5     O49       3.89271      .   S
    Zr46   O50       1.67259  1_645   S
    N12    O50       3.89936  1_545   S
    Zr46   O51       2.58236  1_545   S
    N9     O51       5.31279      .   S
    Zr46   O52       1.66925  1_545   S
    N20    O52       3.91500      .   S
    Zr46   O53       1.66610      .   S
    N5     O53       3.88795      .   S
    Zr46   O54       1.66211  1_655   S
    N12    O54       3.90372      .   S
    Zr46   O55       1.67142      .   S
    N13    O55       3.89268      .   S
    Zr46   O56       2.59616      .   S
    N7     O56       5.35095      .   S
    Zr57   O58       1.67718  1_565   S
    N22    O58       3.89887  1_565   S
    Zr57   O59       1.65637  1_565   S
    N23    O59       3.90307  1_565   S
    Zr57   O60       2.58183  1_565   S
    N11    O60       5.31219      .   S
    Zr57   O61       1.65899      .   S
    N18    O61       3.89363      .   S
    Zr57   O62       1.67716  1_565   S
    N0     O62       3.90833      .   S
    Zr57   O63       1.66091      .   S
    N22    O63       3.90873      .   S
    Zr57   O64       2.59588      .   S
    N15    O64       5.34981      .   S
    Zr57   O65       1.67468      .   S
    N23    O65       3.89220      .   S
    Zr57   O66       1.66654      .   S
    N18    O66       3.88931      .   S
    Zr57   O67       1.66896  1_565   S
    N0     O67       3.91297      .   S
    Zr68   O69       1.66213  1_455   S
    N23    O69       3.90374      .   S
    Zr68   O70       2.59627      .   S
    N14    O70       5.35138      .   S
    Zr68   O71       1.67143      .   S
    N22    O71       3.89271      .   S
    Zr68   O72       1.66903  1_565   S
    N1     O72       3.91447      .   S
    Zr68   O73       1.66608      .   S
    N16    O73       3.88796      .   S
    Zr68   O74       1.65773  1_565   S
    N22    O74       3.89865  1_565   S
    Zr68   O75       1.67260  1_465   S
    N23    O75       3.89938  1_565   S
    Zr68   O76       1.67805  1_565   S
    N1     O76       3.90937      .   S
    Zr68   O77       2.58245  1_565   S
    N10    O77       5.31326      .   S
    Zr68   O78       1.65848      .   S
    N16    O78       3.89271      .   S
    Zr79   O80       2.59476      .   S
    N7     O80       5.34338  1_554   S
    Zr79   O81       1.66816      .   S
    N5     O81       3.88780      .   S
    Zr79   O82       1.67845      .   S
    N20    O82       3.92589  1_554   S
    Zr79   O83       1.65741      .   S
    N2     O83       3.89209      .   S
    Zr79   O84       1.66112      .   S
    N3     O84       3.92003  1_455   S
    Zr79   O85       1.65628      .   S
    N5     O85       3.89646      .   S
    Zr79   O86       1.66140      .   S
    N2     O86       3.88871      .   S
    Zr79   O87       1.68313      .   S
    N20    O87       3.92378  1_554   S
    Zr79   O88       1.68513      .   S
    N3     O88       3.90332  1_455   S
    Zr79   O89       2.59036      .   S
    N9     O89       5.32822      .   S
    Zr90   O91       1.65549      .   S
    N18    O91       3.89942      .   S
    Zr90   O92       1.68766      .   S
    N17    O92       3.90229      .   S
    Zr90   O93       2.59237      .   S
    N11    O93       5.33044      .   S
    Zr90   O94       1.68228      .   S
    N0     O94       3.92427  1_556   S
    Zr90   O95       1.66090      .   S
    N6     O95       3.88242      .   S
    Zr90   O96       2.59609      .   S
    N15    O96       5.34412  1_556   S
    Zr90   O97       1.65935      .   S
    N17    O97       3.92179      .   S
    Zr90   O98       1.67097      .   S
    N18    O98       3.88868      .   S
    Zr90   O99       1.67916      .   S
    N0     O99       3.92536  1_556   S
    Zr90   O100      1.65452      .   S
    N6     O100      3.88718      .   S
    Zr101  O102      1.69976      .   S
    N6     O102      3.89694  1_655   S
    Zr101  O103      1.66141      .   S
    N17    O103      3.88669      .   S
    Zr101  O104      1.65633      .   S
    N16    O104      3.89679      .   S
    Zr101  O105      1.68326      .   S
    N1     O105      3.92466  1_556   S
    Zr101  O106      2.59000      .   S
    N10    O106      5.32775      .   S
    Zr101  O107      1.66523      .   S
    N6     O107      3.92452  1_655   S
    Zr101  O108      1.66829      .   S
    N16    O108      3.88804      .   S
    Zr101  O109      2.59506      .   S
    N14    O109      5.34403  1_556   S
    Zr101  O110      1.65595      .   S
    N17    O110      3.89153      .   S
    Zr101  O111      1.67885      .   S
    N1     O111      3.92648  1_556   S
