# CIF file generated by openbabel 2.4.90, see http://openbabel.sf.net
data_I
_chemical_name_common ''
_cell_length_a 12.488
_cell_length_b 13.572
_cell_length_c 18.219
_cell_angle_alpha 106.039
_cell_angle_beta 89.968
_cell_angle_gamma 90.044
_space_group_name_H-M_alt 'P 1'
_space_group_name_Hall 'P 1'
loop_
    _symmetry_equiv_pos_as_xyz
    x,y,z
loop_
    _atom_site_label
    _atom_site_type_symbol
    _atom_site_fract_x
    _atom_site_fract_y
    _atom_site_fract_z
    _atom_site_occupancy
    Zr0     Zr   0.18975   0.74978   0.75020   1.000
    Zr1     Zr   0.68975   0.74977   0.75020   1.000
    Zr2     Zr   0.31025   0.25021   0.24983   1.000
    Zr3     Zr   0.81025   0.25020   0.24983   1.000
    N4      N    0.25000   0.99999   0.49999   1.000
    O5      O    0.00228   0.11210   0.39158   1.000
    O6      O    0.49772   0.88787   0.60842   1.000
    N7      N    0.50001   0.99997   0.00002   1.000
    O8      O    0.57166   0.89608   0.89550   1.000
    O9      O    0.42835   0.10387   0.10454   1.000
    N10     N    0.00001   0.99998   0.00002   1.000
    O11     O    0.92834   0.10385   0.10454   1.000
    O12     O    0.07168   0.89611   0.89550   1.000
    N13     N    0.75000   0.49998   0.99998   1.000
    O14     O    0.50251   0.38828   0.10820   1.000
    O15     O    0.99749   0.61169   0.89179   1.000
    N16     N    0.74999   0.99999   0.50001   1.000
    O17     O    0.99771   0.88788   0.60844   1.000
    O18     O    0.50228   0.11210   0.39159   1.000
    N19     N    0.50000   0.49999   0.50001   1.000
    O20     O    0.42835   0.39600   0.39548   1.000
    O21     O    0.57164   0.60397   0.60453   1.000
    N22     N    0.00000   0.49999   0.50002   1.000
    O23     O    0.07164   0.60398   0.60456   1.000
    O24     O    0.92836   0.39600   0.39549   1.000
    N25     N    0.24999   0.49998   0.99980   1.000
    O26     O    0.00251   0.38828   0.10811   1.000
    O27     O    0.49749   0.61168   0.89170   1.000
loop_
    _geom_bond_atom_site_label_1
    _geom_bond_atom_site_label_2
    _geom_bond_distance
    _geom_bond_site_symmetry_2
    _ccdc_geom_bond_type
    N4     O5        4.17857  1_565   S
    Zr3    O5        4.31528  1_655   S
    N4     O6        4.17887      .   S
    Zr1    O6        4.31581      .   S
    N7     O8        2.22065  1_554   S
    Zr1    O8        3.19706      .   S
    N7     O9        2.22071  1_565   S
    Zr2    O9        3.19712      .   S
    N10    O11       2.22068  1_465   S
    Zr3    O11       3.19707      .   S
    N10    O12       2.22060  1_554   S
    Zr0    O12       3.19705      .   S
    N13    O14       4.16842  1_556   S
    Zr2    O14       4.31195      .   S
    N13    O15       4.16806      .   S
    Zr0    O15       4.31157  1_455   S
    N16    O17       4.17880      .   S
    Zr0    O17       4.31549  1_455   S
    N16    O18       4.17871  1_565   S
    Zr2    O18       4.31543      .   S
    N19    O20       2.22125      .   S
    Zr2    O20       3.19857      .   S
    N19    O21       2.22109      .   S
    Zr1    O21       3.19878      .   S
    N22    O23       2.22130      .   S
    Zr0    O23       3.19854      .   S
    N22    O24       2.22130  1_455   S
    Zr3    O24       3.19865      .   S
    N25    O26       4.16939  1_556   S
    Zr3    O26       4.31311  1_655   S
    N25    O27       4.16709      .   S
    Zr1    O27       4.31035      .   S
