# CIF file generated by openbabel 2.4.90, see http://openbabel.sf.net
data_I
_chemical_name_common ''
_cell_length_a 11.272
_cell_length_b 24.217
_cell_length_c 23.214
_cell_angle_alpha 98.079
_cell_angle_beta 90.007
_cell_angle_gamma 89.999
_space_group_name_H-M_alt 'P 1'
_space_group_name_Hall 'P 1'
loop_
    _symmetry_equiv_pos_as_xyz
    x,y,z
loop_
    _atom_site_label
    _atom_site_type_symbol
    _atom_site_fract_x
    _atom_site_fract_y
    _atom_site_fract_z
    _atom_site_occupancy
    H0      H    0.02757   0.32662   0.52592   1.000
    H1      H    0.02758   0.82662   0.52592   1.000
    H2      H    0.52757   0.32662   0.52592   1.000
    H3      H    0.52758   0.82662   0.52592   1.000
    H4      H    0.18711   0.39255   0.58279   1.000
    H5      H    0.18711   0.89255   0.58279   1.000
    H6      H    0.68711   0.39255   0.58279   1.000
    H7      H    0.68711   0.89255   0.58279   1.000
    H8      H    0.47586   0.23513   0.55794   1.000
    H9      H    0.47587   0.73512   0.55794   1.000
    H10     H    0.97586   0.23513   0.55794   1.000
    H11     H    0.97587   0.73512   0.55794   1.000
    H12     H    0.13408   0.30175   0.61494   1.000
    H13     H    0.13408   0.80174   0.61494   1.000
    H14     H    0.63408   0.30175   0.61494   1.000
    H15     H    0.63409   0.80174   0.61494   1.000
    H16     H    0.46507   0.15999   0.66603   1.000
    H17     H    0.46507   0.65998   0.66600   1.000
    H18     H    0.96507   0.15999   0.66600   1.000
    H19     H    0.96507   0.65998   0.66600   1.000
    H20     H    0.12379   0.23641   0.70710   1.000
    H21     H    0.12380   0.73641   0.70709   1.000
    H22     H    0.62380   0.23641   0.70710   1.000
    H23     H    0.62380   0.73641   0.70700   1.000
    H24     H    0.00403   0.16177   0.77260   1.000
    H25     H    0.00403   0.66176   0.77260   1.000
    H26     H    0.50403   0.16177   0.77260   1.000
    H27     H    0.50403   0.66176   0.77260   1.000
    H28     H    0.16198   0.23519   0.81276   1.000
    H29     H    0.16198   0.73518   0.81276   1.000
    H30     H    0.66198   0.23519   0.81276   1.000
    H31     H    0.66199   0.73518   0.81276   1.000
    H32     H    0.27760   0.42337   0.97402   1.000
    H33     H    0.27760   0.92337   0.97402   1.000
    H34     H    0.77760   0.42337   0.97402   1.000
    H35     H    0.77760   0.92337   0.97402   1.000
    H36     H    0.43701   0.35750   0.91723   1.000
    H37     H    0.43702   0.85750   0.91723   1.000
    H38     H    0.93701   0.35750   0.91720   1.000
    H39     H    0.93702   0.85750   0.91723   1.000
    H40     H    0.22594   0.01487   0.94198   1.000
    H41     H    0.22594   0.51486   0.94198   1.000
    H42     H    0.72594   0.01487   0.94198   1.000
    H43     H    0.72594   0.51486   0.94198   1.000
    H44     H    0.38403   0.44831   0.88507   1.000
    H45     H    0.38403   0.94830   0.88507   1.000
    H46     H    0.88403   0.44831   0.88507   1.000
    H47     H    0.88403   0.94830   0.88507   1.000
    H48     H    0.21507   0.09005   0.83394   1.000
    H49     H    0.21508   0.59004   0.83394   1.000
    H50     H    0.71508   0.09005   0.83394   1.000
    H51     H    0.71508   0.59004   0.83394   1.000
    H52     H    0.37387   0.01356   0.79281   1.000
    H53     H    0.37388   0.51355   0.79281   1.000
    H54     H    0.87387   0.01356   0.79281   1.000
    H55     H    0.87388   0.51355   0.79281   1.000
    H56     H    0.25407   0.08827   0.72738   1.000
    H57     H    0.25407   0.58826   0.72738   1.000
    H58     H    0.75407   0.08827   0.72738   1.000
    H59     H    0.75407   0.58826   0.72738   1.000
    H60     H    0.41209   0.01479   0.68716   1.000
    H61     H    0.41210   0.51478   0.68716   1.000
    H62     H    0.91209   0.01479   0.68716   1.000
    H63     H    0.91210   0.51478   0.68716   1.000
    H64     H    0.47242   0.17338   0.47405   1.000
    H65     H    0.47243   0.67338   0.47400   1.000
    H66     H    0.97242   0.17338   0.47400   1.000
    H67     H    0.97243   0.67338   0.47400   1.000
    H68     H    0.31289   0.10745   0.41718   1.000
    H69     H    0.31289   0.60745   0.41718   1.000
    H70     H    0.81288   0.10745   0.41718   1.000
    H71     H    0.81289   0.60745   0.41718   1.000
    H72     H    0.02413   0.26488   0.44200   1.000
    H73     H    0.02414   0.76487   0.44202   1.000
    H74     H    0.52413   0.26488   0.44200   1.000
    H75     H    0.52414   0.76487   0.44202   1.000
    H76     H    0.36592   0.19825   0.38503   1.000
    H77     H    0.36592   0.69825   0.38503   1.000
    H78     H    0.86592   0.19825   0.38503   1.000
    H79     H    0.86592   0.69825   0.38503   1.000
    H80     H    0.03493   0.34002   0.33394   1.000
    H81     H    0.03494   0.84001   0.33394   1.000
    H82     H    0.53493   0.34002   0.33394   1.000
    H83     H    0.53494   0.84001   0.33394   1.000
    H84     H    0.37620   0.26359   0.29280   1.000
    H85     H    0.37621   0.76359   0.29287   1.000
    H86     H    0.87621   0.26359   0.29280   1.000
    H87     H    0.87621   0.76359   0.29287   1.000
    H88     H    0.49597   0.33824   0.22737   1.000
    H89     H    0.49597   0.83823   0.22737   1.000
    H90     H    0.99597   0.33824   0.22737   1.000
    H91     H    0.99597   0.83824   0.22737   1.000
    H92     H    0.33802   0.26482   0.18721   1.000
    H93     H    0.33802   0.76482   0.18721   1.000
    H94     H    0.83802   0.26482   0.18721   1.000
    H95     H    0.83802   0.76482   0.18721   1.000
    H96     H    0.22240   0.07663   0.02594   1.000
    H97     H    0.22241   0.57663   0.02594   1.000
    H98     H    0.72241   0.07663   0.02594   1.000
    H99     H    0.72241   0.57663   0.02594   1.000
    H100    H    0.06299   0.14250   0.08273   1.000
    H101    H    0.06299   0.64250   0.08273   1.000
    H102    H    0.56299   0.14250   0.08273   1.000
    H103    H    0.56299   0.64250   0.08273   1.000
    H104    H    0.27407   0.48514   0.05799   1.000
    H105    H    0.27407   0.98513   0.05799   1.000
    H106    H    0.77407   0.48514   0.05799   1.000
    H107    H    0.77407   0.98513   0.05799   1.000
    H108    H    0.11597   0.05170   0.11490   1.000
    H109    H    0.11597   0.55169   0.11400   1.000
    H110    H    0.61597   0.05170   0.11490   1.000
    H111    H    0.61598   0.55169   0.11400   1.000
    C112    C    0.13870   0.13501   0.44766   1.000
    H113    H    0.28492   0.40996   0.16603   1.000
    H114    H    0.28493   0.90995   0.16603   1.000
    H115    H    0.78492   0.40996   0.16603   1.000
    H116    H    0.78493   0.90995   0.16603   1.000
    H117    H    0.12612   0.48645   0.20716   1.000
    H118    H    0.12613   0.98645   0.20716   1.000
    H119    H    0.62612   0.48645   0.20716   1.000
    H120    H    0.62613   0.98645   0.20716   1.000
    H121    H    0.24593   0.41174   0.27259   1.000
    H122    H    0.24593   0.91173   0.27250   1.000
    H123    H    0.74593   0.41174   0.27259   1.000
    H124    H    0.74593   0.91173   0.27250   1.000
    H125    H    0.08790   0.48522   0.31281   1.000
    H126    H    0.08791   0.98521   0.31281   1.000
    H127    H    0.58790   0.48522   0.31281   1.000
    H128    H    0.58791   0.98521   0.31281   1.000
    C129    C    0.36130   0.36499   0.55231   1.000
    C130    C    0.36130   0.86498   0.55231   1.000
    C131    C    0.86130   0.36499   0.55231   1.000
    C132    C    0.86130   0.86498   0.55231   1.000
    C133    C    0.44199   0.32059   0.54571   1.000
    C134    C    0.44200   0.82059   0.54571   1.000
    C135    C    0.94199   0.32059   0.54571   1.000
    C136    C    0.94200   0.82059   0.54570   1.000
    C137    C    0.25042   0.35820   0.57782   1.000
    C138    C    0.25042   0.85819   0.57782   1.000
    C139    C    0.75042   0.35819   0.57782   1.000
    C140    C    0.75042   0.85819   0.57782   1.000
    C141    C    0.41305   0.26954   0.56307   1.000
    C142    C    0.41306   0.76953   0.56307   1.000
    C143    C    0.91306   0.26954   0.56307   1.000
    C144    C    0.91307   0.76953   0.56307   1.000
    C145    C    0.22052   0.30737   0.59570   1.000
    C146    C    0.22053   0.80737   0.59578   1.000
    C147    C    0.72053   0.30737   0.59578   1.000
    C148    C    0.72053   0.80737   0.59578   1.000
    C149    C    0.30145   0.26314   0.58749   1.000
    C150    C    0.30146   0.76313   0.58749   1.000
    C151    C    0.80146   0.26314   0.58749   1.000
    C152    C    0.80146   0.76313   0.58740   1.000
    C153    C    0.29303   0.19889   0.68089   1.000
    C154    C    0.29304   0.69889   0.68089   1.000
    C155    C    0.79303   0.19890   0.68089   1.000
    C156    C    0.79304   0.69889   0.68089   1.000
    C157    C    0.40041   0.17753   0.69837   1.000
    C158    C    0.40041   0.67752   0.69837   1.000
    C159    C    0.90040   0.17753   0.69837   1.000
    C160    C    0.90041   0.67752   0.69837   1.000
    C161    C    0.20756   0.22079   0.72161   1.000
    C162    C    0.20756   0.72078   0.72160   1.000
    C163    C    0.70756   0.22079   0.72161   1.000
    C164    C    0.70757   0.72078   0.72160   1.000
    C165    C    0.42153   0.17837   0.75775   1.000
    C166    C    0.42154   0.67837   0.75775   1.000
    C167    C    0.92154   0.17837   0.75775   1.000
    C168    C    0.92154   0.67837   0.75775   1.000
    C169    C    0.22915   0.22033   0.78054   1.000
    C170    C    0.22916   0.72033   0.78054   1.000
    C171    C    0.72916   0.22033   0.78054   1.000
    C172    C    0.72916   0.72032   0.78054   1.000
    C173    C    0.33633   0.19930   0.79914   1.000
    C174    C    0.33634   0.69929   0.79914   1.000
    C175    C    0.83634   0.19930   0.79914   1.000
    C176    C    0.83634   0.69929   0.79914   1.000
    C177    C    0.11126   0.38503   0.94767   1.000
    C178    C    0.11127   0.88503   0.94760   1.000
    C179    C    0.61126   0.38503   0.94767   1.000
    C180    C    0.61126   0.88503   0.94768   1.000
    C181    C    0.19200   0.42941   0.95425   1.000
    C182    C    0.19200   0.92941   0.95425   1.000
    C183    C    0.69200   0.42941   0.95425   1.000
    C184    C    0.69200   0.92941   0.95425   1.000
    C185    C    0.50036   0.39184   0.92218   1.000
    C186    C    0.50036   0.89184   0.92218   1.000
    C187    C    0.00000   0.39184   0.92218   1.000
    C188    C    0.00000   0.89184   0.92218   1.000
    C189    C    0.16310   0.48047   0.93687   1.000
    C190    C    0.16310   0.98046   0.93687   1.000
    C191    C    0.66310   0.48047   0.93687   1.000
    C192    C    0.66310   0.98046   0.93687   1.000
    C193    C    0.47050   0.44266   0.90421   1.000
    C194    C    0.47050   0.94266   0.90421   1.000
    C195    C    0.97050   0.44266   0.90421   1.000
    C196    C    0.97050   0.94266   0.90421   1.000
    C197    C    0.05147   0.48688   0.91247   1.000
    C198    C    0.05147   0.98688   0.91247   1.000
    C199    C    0.55147   0.48688   0.91247   1.000
    C200    C    0.55147   0.98688   0.91247   1.000
    C201    C    0.04306   0.05112   0.81900   1.000
    C202    C    0.04307   0.55111   0.81900   1.000
    C203    C    0.54307   0.05112   0.81900   1.000
    C204    C    0.54307   0.55111   0.81900   1.000
    C205    C    0.15043   0.07250   0.80159   1.000
    C206    C    0.15043   0.57249   0.80159   1.000
    C207    C    0.65043   0.07250   0.80159   1.000
    C208    C    0.65043   0.57249   0.80159   1.000
    C209    C    0.45763   0.02920   0.77832   1.000
    C210    C    0.45763   0.52920   0.77832   1.000
    C211    C    0.95763   0.02920   0.77832   1.000
    C212    C    0.95763   0.52920   0.77832   1.000
    C213    C    0.17158   0.07166   0.74222   1.000
    C214    C    0.17158   0.57165   0.74222   1.000
    C215    C    0.67158   0.07166   0.74222   1.000
    C216    C    0.67158   0.57165   0.74222   1.000
    C217    C    0.47924   0.02966   0.71939   1.000
    C218    C    0.47924   0.52966   0.71939   1.000
    C219    C    0.97924   0.02966   0.71939   1.000
    C220    C    0.97924   0.52966   0.71939   1.000
    C221    C    0.08640   0.05072   0.70082   1.000
    C222    C    0.08640   0.55071   0.70082   1.000
    C223    C    0.58640   0.05072   0.70082   1.000
    C224    C    0.58640   0.55071   0.70082   1.000
    C225    C    0.13870   0.63501   0.44765   1.000
    C226    C    0.63870   0.13502   0.44766   1.000
    C227    C    0.63870   0.63501   0.44765   1.000
    C228    C    0.05800   0.17941   0.45426   1.000
    C229    C    0.05801   0.67941   0.45426   1.000
    C230    C    0.55800   0.17941   0.45426   1.000
    C231    C    0.55801   0.67941   0.45426   1.000
    C232    C    0.24958   0.14181   0.42215   1.000
    C233    C    0.24958   0.64180   0.42215   1.000
    C234    C    0.74958   0.14181   0.42215   1.000
    C235    C    0.74958   0.64180   0.42215   1.000
    C236    C    0.08694   0.23047   0.43690   1.000
    C237    C    0.08695   0.73046   0.43690   1.000
    C238    C    0.58694   0.23047   0.43690   1.000
    C239    C    0.58695   0.73046   0.43690   1.000
    C240    C    0.27947   0.19263   0.40419   1.000
    C241    C    0.27948   0.69262   0.40419   1.000
    C242    C    0.77947   0.19263   0.40419   1.000
    C243    C    0.77948   0.69262   0.40419   1.000
    C244    C    0.19854   0.23687   0.41248   1.000
    C245    C    0.19855   0.73686   0.41248   1.000
    C246    C    0.69854   0.23687   0.41248   1.000
    C247    C    0.69855   0.73686   0.41248   1.000
    C248    C    0.20697   0.30111   0.31908   1.000
    C249    C    0.20697   0.80111   0.31908   1.000
    C250    C    0.70697   0.30111   0.31908   1.000
    C251    C    0.70698   0.80111   0.31908   1.000
    C252    C    0.09959   0.32248   0.30160   1.000
    C253    C    0.09960   0.82247   0.30160   1.000
    C254    C    0.59960   0.32248   0.30160   1.000
    C255    C    0.59960   0.82247   0.30160   1.000
    C256    C    0.29244   0.27922   0.27830   1.000
    C257    C    0.29244   0.77921   0.27836   1.000
    C258    C    0.79244   0.27922   0.27830   1.000
    C259    C    0.79244   0.77921   0.27836   1.000
    C260    C    0.07846   0.32164   0.24220   1.000
    C261    C    0.07847   0.82163   0.24220   1.000
    C262    C    0.57846   0.32164   0.24220   1.000
    C263    C    0.57847   0.82163   0.24220   1.000
    C264    C    0.27084   0.27968   0.21943   1.000
    C265    C    0.27085   0.77967   0.21943   1.000
    C266    C    0.77084   0.27968   0.21943   1.000
    C267    C    0.77085   0.77967   0.21943   1.000
    C268    C    0.16366   0.30071   0.20083   1.000
    C269    C    0.16367   0.80071   0.20083   1.000
    C270    C    0.66366   0.30071   0.20083   1.000
    C271    C    0.66367   0.80071   0.20083   1.000
    C272    C    0.38874   0.11497   0.05229   1.000
    C273    C    0.38874   0.61497   0.05229   1.000
    C274    C    0.88874   0.11497   0.05229   1.000
    C275    C    0.88874   0.61497   0.05229   1.000
    C276    C    0.30800   0.07059   0.04572   1.000
    C277    C    0.30800   0.57059   0.04572   1.000
    C278    C    0.80800   0.07059   0.04572   1.000
    C279    C    0.80800   0.57059   0.04572   1.000
    C280    C    0.99964   0.10816   0.07779   1.000
    C281    C    0.99964   0.60816   0.07779   1.000
    C282    C    0.49964   0.10816   0.07779   1.000
    C283    C    0.49964   0.60816   0.07779   1.000
    C284    C    0.33691   0.01954   0.06310   1.000
    C285    C    0.33691   0.51953   0.06300   1.000
    C286    C    0.83691   0.01954   0.06310   1.000
    C287    C    0.83691   0.51953   0.06310   1.000
    C288    C    0.02950   0.05734   0.09576   1.000
    C289    C    0.02951   0.55734   0.09576   1.000
    C290    C    0.52950   0.05734   0.09576   1.000
    C291    C    0.52951   0.55734   0.09570   1.000
    C292    C    0.44853   0.01312   0.08700   1.000
    C293    C    0.44853   0.51312   0.08749   1.000
    C294    C    0.94853   0.01312   0.08700   1.000
    C295    C    0.94853   0.51312   0.08749   1.000
    C296    C    0.45693   0.44889   0.18092   1.000
    C297    C    0.45693   0.94889   0.18092   1.000
    C298    C    0.95693   0.44889   0.18092   1.000
    C299    C    0.95693   0.94889   0.18092   1.000
    C300    C    0.34957   0.42751   0.19838   1.000
    C301    C    0.34957   0.92750   0.19838   1.000
    C302    C    0.84957   0.42751   0.19838   1.000
    C303    C    0.84957   0.92750   0.19838   1.000
    C304    C    0.04237   0.47081   0.22165   1.000
    C305    C    0.04237   0.97080   0.22165   1.000
    C306    C    0.54237   0.47080   0.22165   1.000
    C307    C    0.54237   0.97080   0.22165   1.000
    C308    C    0.32842   0.42835   0.25775   1.000
    C309    C    0.32842   0.92834   0.25775   1.000
    C310    C    0.82842   0.42835   0.25775   1.000
    C311    C    0.82842   0.92834   0.25775   1.000
    C312    C    0.02076   0.47035   0.28058   1.000
    C313    C    0.02076   0.97034   0.28058   1.000
    C314    C    0.52076   0.47035   0.28058   1.000
    C315    C    0.52076   0.97034   0.28058   1.000
    C316    C    0.41359   0.44929   0.29910   1.000
    C317    C    0.41360   0.94928   0.29910   1.000
    C318    C    0.91360   0.44929   0.29910   1.000
    C319    C    0.91360   0.94928   0.29910   1.000
    S320    S    0.25911   0.19692   0.60590   1.000
    S321    S    0.25912   0.69692   0.60590   1.000
    S322    S    0.75911   0.19692   0.60590   1.000
    S323    S    0.75912   0.69692   0.60593   1.000
    S324    S    0.00914   0.05310   0.89401   1.000
    S325    S    0.00914   0.55309   0.89401   1.000
    S326    S    0.50914   0.05310   0.89401   1.000
    S327    S    0.50914   0.55309   0.89401   1.000
    S328    S    0.24088   0.30308   0.39404   1.000
    S329    S    0.24089   0.80308   0.39400   1.000
    S330    S    0.74089   0.30308   0.39404   1.000
    S331    S    0.74089   0.80308   0.39400   1.000
    S332    S    0.49086   0.44691   0.10596   1.000
    S333    S    0.49086   0.94691   0.10596   1.000
    S334    S    0.99086   0.44691   0.10596   1.000
    S335    S    0.99086   0.94691   0.10596   1.000
    O336    O    0.33744   0.15560   0.57240   1.000
    O337    O    0.33744   0.65559   0.57240   1.000
    O338    O    0.83744   0.15560   0.57240   1.000
    O339    O    0.83744   0.65559   0.57240   1.000
    O340    O    0.13073   0.19201   0.59974   1.000
    O341    O    0.13074   0.69201   0.59974   1.000
    O342    O    0.63074   0.19201   0.59974   1.000
    O343    O    0.63074   0.69201   0.59974   1.000
    O344    O    0.08747   0.09442   0.92755   1.000
    O345    O    0.08747   0.59442   0.92755   1.000
    O346    O    0.58747   0.09442   0.92755   1.000
    O347    O    0.58747   0.59442   0.92755   1.000
    O348    O    0.38076   0.05801   0.90020   1.000
    O349    O    0.38076   0.55800   0.90020   1.000
    O350    O    0.88076   0.05801   0.90020   1.000
    O351    O    0.88077   0.55800   0.90020   1.000
    O352    O    0.16256   0.34440   0.42758   1.000
    O353    O    0.16256   0.84440   0.42758   1.000
    O354    O    0.66256   0.34440   0.42758   1.000
    O355    O    0.66256   0.84440   0.42750   1.000
    O356    O    0.36926   0.30799   0.40023   1.000
    O357    O    0.36927   0.80799   0.40023   1.000
    O358    O    0.86926   0.30799   0.40023   1.000
    O359    O    0.86927   0.80799   0.40023   1.000
    O360    O    0.41253   0.40558   0.07242   1.000
    O361    O    0.41253   0.90558   0.07242   1.000
    O362    O    0.91253   0.40558   0.07242   1.000
    O363    O    0.91253   0.90558   0.07242   1.000
    O364    O    0.11924   0.44200   0.09970   1.000
    O365    O    0.11924   0.94199   0.09977   1.000
    O366    O    0.61924   0.44200   0.09970   1.000
    O367    O    0.61924   0.94199   0.09977   1.000
loop_
    _geom_bond_atom_site_label_1
    _geom_bond_atom_site_label_2
    _geom_bond_distance
    _geom_bond_site_symmetry_2
    _ccdc_geom_bond_type
    H96    C276      1.08716      .   S
    H97    C277      1.08717      .   S
    H98    C278      1.08716      .   S
    H99    C279      1.08716      .   S
    C276   C272      1.40019      .   S
    C276   C284      1.39198      .   S
    C277   C273      1.40019      .   S
    C277   C285      1.39102      .   S
    C278   C274      1.40020      .   S
    C278   C286      1.39198      .   S
    C279   C275      1.40020      .   S
    C279   C287      1.39198      .   S
    C275   C281      1.40270      .   S
    C274   C280      1.40268      .   S
    C273   C283      1.40273      .   S
    C272   C282      1.40269      .   S
    H104   C285      1.08715      .   S
    H105   C284      1.08723  1_565   S
    H106   C287      1.08716      .   S
    H107   C286      1.08724  1_565   S
    C285   C293      1.39827      .   S
    C287   C295      1.39730      .   S
    C286   C294      1.39255      .   S
    C284   C292      1.39256      .   S
    O361   S333      1.47252      .   S
    O363   S335      1.47252      .   S
    O362   S334      1.47252      .   S
    O360   S332      1.47252      .   S
    C283   H103      1.08988      .   S
    C283   C291      1.39447      .   S
    C282   H102      1.08988      .   S
    C282   C290      1.39504      .   S
    C280   H100      1.08991  1_655   S
    C280   C288      1.39504  1_655   S
    C281   H101      1.08989  1_655   S
    C281   C289      1.39504  1_655   S
    C294   C288      1.40000  1_655   S
    C294   S335      1.78633  1_545   S
    C292   C290      1.40000      .   S
    C292   S333      1.78633  1_545   S
    C295   C289      1.39960  1_655   S
    C295   S334      1.78201      .   S
    C293   C291      1.39958      .   S
    C293   S332      1.78201      .   S
    C291   H111      1.07951      .   S
    C288   H108      1.08768      .   S
    C289   H109      1.07894      .   S
    C290   H110      1.08769      .   S
    O364   S334      1.45753  1_455   S
    O366   S332      1.45755      .   S
    O365   S335      1.45740  1_455   S
    O367   S333      1.45741      .   S
    S334   C298      1.77575      .   S
    S332   C296      1.77575      .   S
    S333   C297      1.77575      .   S
    S335   C299      1.77575      .   S
    H113   C300      1.08891      .   S
    H116   C303      1.08891      .   S
    H115   C302      1.08890      .   S
    H114   C301      1.08890      .   S
    C298   C302      1.39862      .   S
    C298   C304      1.40065  1_655   S
    C296   C300      1.39861      .   S
    C296   C306      1.40067      .   S
    C297   C301      1.39861      .   S
    C297   C307      1.40067      .   S
    C299   C303      1.39861      .   S
    C299   C305      1.40065  1_655   S
    H94    C266      1.08936      .   S
    H95    C267      1.08936      .   S
    H93    C265      1.08935      .   S
    H92    C264      1.08936      .   S
    C303   C311      1.39604      .   S
    C302   C310      1.39604      .   S
    C301   C309      1.39604      .   S
    C300   C308      1.39604      .   S
    C270   C266      1.40256      .   S
    C270   C262      1.40172      .   S
    C269   C265      1.40256      .   S
    C269   C261      1.40171      .   S
    C268   C264      1.40255      .   S
    C268   C260      1.40172      .   S
    C271   C267      1.40255      .   S
    C271   C263      1.40171      .   S
    H118   C305      1.08809      .   S
    H117   C304      1.08808      .   S
    H119   C306      1.08808      .   S
    H120   C307      1.08809      .   S
    C267   C259      1.39104      .   S
    C266   C258      1.38966      .   S
    C265   C257      1.39105      .   S
    C264   C256      1.38967      .   S
    C307   C315      1.39114      .   S
    C306   C314      1.39113      .   S
    C305   C313      1.39114      .   S
    C304   C312      1.39113      .   S
    H89    C263      1.08795      .   S
    H90    C260      1.08793  1_655   S
    H91    C261      1.08794  1_655   S
    H88    C262      1.08795      .   S
    C263   C255      1.39663      .   S
    C262   C254      1.39663      .   S
    C261   C253      1.39663      .   S
    C260   C252      1.39663      .   S
    C308   H121      1.08819      .   S
    C308   C316      1.40120      .   S
    C309   H122      1.08743      .   S
    C309   C317      1.40120      .   S
    C310   H123      1.08820      .   S
    C310   C318      1.40120      .   S
    C311   H124      1.08742      .   S
    C311   C319      1.40121      .   S
    C256   H84       1.08799      .   S
    C256   C248      1.40163      .   S
    C258   H86       1.08798      .   S
    C258   C250      1.40163      .   S
    C257   H85       1.08807      .   S
    C257   C249      1.40076      .   S
    C259   H87       1.08808      .   S
    C259   C251      1.40075      .   S
    C315   C317      1.40206      .   S
    C315   H128      1.08926      .   S
    C313   C319      1.40204  1_455   S
    C313   H126      1.08926      .   S
    C314   C316      1.40206      .   S
    C314   H127      1.08926      .   S
    C312   C318      1.40204  1_455   S
    C312   H125      1.08926      .   S
    C253   C249      1.39864      .   S
    C253   H81       1.08893      .   S
    C255   C251      1.39863      .   S
    C255   H83       1.08893      .   S
    C254   C250      1.39862      .   S
    C254   H82       1.08894      .   S
    C252   C248      1.39862      .   S
    C252   H80       1.08894      .   S
    C251   S331      1.77475      .   S
    C250   S330      1.77566      .   S
    C249   S329      1.77475      .   S
    C248   S328      1.77566      .   S
    H76    C240      1.08768      .   S
    H79    C243      1.08766      .   S
    H78    C242      1.08769      .   S
    H77    C241      1.08764      .   S
    S331   O359      1.45746      .   S
    S331   C247      1.78230      .   S
    S331   O355      1.47212      .   S
    S329   O357      1.45746      .   S
    S329   C245      1.78232      .   S
    S329   O353      1.47293      .   S
    S328   O356      1.45738      .   S
    S328   C244      1.78196      .   S
    S328   O352      1.47252      .   S
    S330   O358      1.45739      .   S
    S330   C246      1.78196      .   S
    S330   O354      1.47252      .   S
    C240   C244      1.39964      .   S
    C240   C232      1.39509      .   S
    C241   C245      1.39964      .   S
    C241   C233      1.39510      .   S
    C242   C246      1.39962      .   S
    C242   C234      1.39506      .   S
    C243   C247      1.39964      .   S
    C243   C235      1.39510      .   S
    C244   C236      1.39740      .   S
    C245   C237      1.39736      .   S
    C246   C238      1.39742      .   S
    C247   C239      1.39738      .   S
    H71    C235      1.08990      .   S
    H70    C234      1.08989      .   S
    H69    C233      1.08990      .   S
    H68    C232      1.08988      .   S
    C234   C226      1.40263      .   S
    C232   C112      1.40265      .   S
    C235   C227      1.40257      .   S
    C233   C225      1.40259      .   S
    C239   H75       1.08713      .   S
    C239   C231      1.39200      .   S
    C238   H74       1.08712      .   S
    C238   C230      1.39194      .   S
    C237   H73       1.08713      .   S
    C237   C229      1.39200      .   S
    C236   H72       1.08714      .   S
    C236   C228      1.39197      .   S
    C227   C231      1.40018      .   S
    C225   C229      1.40019      .   S
    C226   C230      1.40018      .   S
    C112   C228      1.40019      .   S
    C231   H65       1.08668      .   S
    C230   H64       1.08720      .   S
    C229   H67       1.08666  1_455   S
    C228   H66       1.08666  1_455   S
    H3     C134      1.08719      .   S
    H2     C133      1.08719      .   S
    H1     C136      1.08707  1_455   S
    H0     C135      1.08718  1_455   S
    C136   C132      1.40020      .   S
    C136   C144      1.39200      .   S
    C135   C131      1.40020      .   S
    C135   C143      1.39194      .   S
    C134   C130      1.40019      .   S
    C134   C142      1.39194      .   S
    C133   C129      1.40020      .   S
    C133   C141      1.39197      .   S
    C129   C137      1.40267      .   S
    C130   C138      1.40263      .   S
    C131   C139      1.40266      .   S
    C132   C140      1.40261      .   S
    H11    C144      1.08714      .   S
    H10    C143      1.08714      .   S
    H9     C142      1.08713      .   S
    H8     C141      1.08713      .   S
    C141   C149      1.39738      .   S
    C142   C150      1.39742      .   S
    C143   C151      1.39739      .   S
    C144   C152      1.39656      .   S
    O337   S321      1.47214      .   S
    O336   S320      1.47213      .   S
    O339   S323      1.47244      .   S
    O338   S322      1.47214      .   S
    C138   H5        1.08988      .   S
    C138   C146      1.39509      .   S
    C139   H6        1.08989      .   S
    C139   C147      1.39509      .   S
    C140   H7        1.08989      .   S
    C140   C148      1.39503      .   S
    C137   H4        1.08988      .   S
    C137   C145      1.39433      .   S
    C152   C148      1.39971      .   S
    C152   S323      1.78268      .   S
    C150   C146      1.39964      .   S
    C150   S321      1.78165      .   S
    C149   C145      1.39958      .   S
    C149   S320      1.78168      .   S
    C151   C147      1.39962      .   S
    C151   S322      1.78168      .   S
    C145   H12       1.08846      .   S
    C147   H14       1.08768      .   S
    C148   H15       1.08770      .   S
    C146   H13       1.08769      .   S
    O340   S320      1.45733      .   S
    O343   S323      1.45740      .   S
    O342   S322      1.45733      .   S
    O341   S321      1.45734      .   S
    S322   C155      1.77634      .   S
    S320   C153      1.77634      .   S
    S321   C154      1.77634      .   S
    S323   C156      1.77566      .   S
    H17    C158      1.08939      .   S
    H18    C159      1.08939      .   S
    H19    C160      1.08939      .   S
    H16    C157      1.08895      .   S
    C154   C158      1.39862      .   S
    C154   C162      1.40063      .   S
    C155   C159      1.39861      .   S
    C155   C163      1.40077      .   S
    C156   C160      1.39861      .   S
    C156   C164      1.40062      .   S
    C153   C157      1.39861      .   S
    C153   C161      1.40077      .   S
    H62    C219      1.08925      .   S
    H60    C217      1.08926      .   S
    H61    C218      1.08925      .   S
    H63    C220      1.08925      .   S
    C160   C168      1.39617      .   S
    C159   C167      1.39617      .   S
    C158   C166      1.39616      .   S
    C157   C165      1.39617      .   S
    C222   C220      1.40245  1_455   S
    C222   C214      1.40194      .   S
    C224   C218      1.40246      .   S
    C224   C216      1.40195      .   S
    C223   C217      1.40246      .   S
    C223   C215      1.40195      .   S
    C221   C219      1.40245  1_455   S
    C221   C213      1.40195      .   S
    H23    C164      1.08882      .   S
    H21    C162      1.08806      .   S
    H20    C161      1.08806      .   S
    H22    C163      1.08807      .   S
    C217   C209      1.39113      .   S
    C218   C210      1.39113      .   S
    C219   C211      1.39113      .   S
    C220   C212      1.39113      .   S
    C162   C170      1.39126      .   S
    C164   C172      1.39126      .   S
    C163   C171      1.39103      .   S
    C161   C169      1.39104      .   S
    H59    C216      1.08819      .   S
    H56    C213      1.08818      .   S
    H57    C214      1.08820      .   S
    H58    C215      1.08818      .   S
    C216   C208      1.39603      .   S
    C215   C207      1.39604      .   S
    C214   C206      1.39603      .   S
    C213   C205      1.39603      .   S
    C165   H26       1.08812      .   S
    C165   C173      1.40202      .   S
    C166   H27       1.08812      .   S
    C166   C174      1.40203      .   S
    C167   H24       1.08810  1_655   S
    C167   C175      1.40201      .   S
    C168   H25       1.08810  1_655   S
    C168   C176      1.40202      .   S
    C212   H55       1.08808      .   S
    C212   C202      1.39994  1_655   S
    C211   H54       1.08808      .   S
    C211   C201      1.39994  1_655   S
    C210   H53       1.08808      .   S
    C210   C204      1.39995      .   S
    C209   H52       1.08808      .   S
    C209   C203      1.39995      .   S
    C172   C176      1.40255      .   S
    C172   H31       1.08938      .   S
    C171   C175      1.40255      .   S
    C171   H30       1.08937      .   S
    C170   C174      1.40253      .   S
    C170   H29       1.08938      .   S
    C169   C173      1.40255      .   S
    C169   H28       1.08936      .   S
    C205   C201      1.39822      .   S
    C205   H48       1.08890      .   S
    C206   C202      1.39822      .   S
    C206   H49       1.08890      .   S
    C207   C203      1.39821      .   S
    C207   H50       1.08892      .   S
    C208   C204      1.39821      .   S
    C208   H51       1.08891      .   S
    C201   S324      1.77688      .   S
    C204   S327      1.77688      .   S
    C203   S326      1.77688      .   S
    C202   S325      1.77688      .   S
    H44    C193      1.08765      .   S
    H45    C194      1.08768      .   S
    H46    C195      1.08765      .   S
    H47    C196      1.08767      .   S
    S324   O350      1.45739  1_455   S
    S324   C198      1.78210  1_545   S
    S324   O344      1.47249      .   S
    S325   O351      1.45740  1_455   S
    S325   C197      1.78195      .   S
    S325   O345      1.47251      .   S
    S326   O348      1.45741      .   S
    S326   C200      1.78207  1_545   S
    S326   O346      1.47249      .   S
    S327   O349      1.45741      .   S
    S327   C199      1.78195      .   S
    S327   O347      1.47252      .   S
    C193   C199      1.39961      .   S
    C193   C185      1.39508      .   S
    C196   C198      1.39961  1_655   S
    C196   C188      1.39405  1_655   S
    C195   C197      1.39959  1_655   S
    C195   C187      1.39408  1_655   S
    C194   C200      1.39961      .   S
    C194   C186      1.39503      .   S
    C198   C190      1.39741      .   S
    C199   C191      1.39739      .   S
    C197   C189      1.39739      .   S
    C200   C192      1.39741      .   S
    H38    C187      1.08723  1_655   S
    H36    C185      1.08988      .   S
    H39    C188      1.08720  1_655   S
    H37    C186      1.08991      .   S
    C187   C177      1.40625      .   S
    C186   C180      1.40268      .   S
    C185   C179      1.40262      .   S
    C188   C178      1.40554      .   S
    C192   H42       1.08723  1_565   S
    C192   C184      1.39198      .   S
    C191   H43       1.08715      .   S
    C191   C183      1.39200      .   S
    C190   H40       1.08723  1_565   S
    C190   C182      1.39200      .   S
    C189   H41       1.08715      .   S
    C189   C181      1.39200      .   S
    C178   C182      1.40020      .   S
    C177   C181      1.40020      .   S
    C179   C183      1.40020      .   S
    C180   C184      1.40020      .   S
    C184   H35       1.08707      .   S
    C183   H34       1.08706      .   S
    C182   H33       1.08706      .   S
    C181   H32       1.08706      .   S
