# CIF file generated by openbabel 2.4.90, see http://openbabel.sf.net
data_I
_chemical_name_common ''
_cell_length_a 11.272
_cell_length_b 24.217
_cell_length_c 23.214
_cell_angle_alpha 98.079
_cell_angle_beta 90.007
_cell_angle_gamma 89.999
_space_group_name_H-M_alt 'P 1'
_space_group_name_Hall 'P 1'
loop_
    _symmetry_equiv_pos_as_xyz
    x,y,z
loop_
    _atom_site_label
    _atom_site_type_symbol
    _atom_site_fract_x
    _atom_site_fract_y
    _atom_site_fract_z
    _atom_site_occupancy
    C0      C    0.85723   0.69773   0.86343   1.000
    C1      C    0.14627   0.33078   0.96791   1.000
    C2      C    0.14627   0.83078   0.96790   1.000
    C3      C    0.64628   0.33078   0.96791   1.000
    C4      C    0.10369   0.08077   0.46791   1.000
    C5      C    0.10369   0.58077   0.46790   1.000
    C6      C    0.60369   0.08077   0.46791   1.000
    C7      C    0.60369   0.58077   0.46791   1.000
    C8      C    0.39630   0.41923   0.53206   1.000
    C9      C    0.39630   0.91923   0.53206   1.000
    C10     C    0.89630   0.41923   0.53206   1.000
    C11     C    0.89630   0.91923   0.53207   1.000
    C12     C    0.35722   0.19774   0.86343   1.000
    C13     C    0.35723   0.69773   0.86343   1.000
    C14     C    0.85723   0.19774   0.86343   1.000
    C15     C    0.64628   0.83078   0.96790   1.000
    C16     C    0.10727   0.05227   0.63653   1.000
    C17     C    0.10727   0.55227   0.63653   1.000
    C18     C    0.60727   0.05227   0.63653   1.000
    C19     C    0.60727   0.55227   0.63653   1.000
    C20     C    0.14277   0.30227   0.13650   1.000
    C21     C    0.14277   0.80226   0.13650   1.000
    C22     C    0.64277   0.30227   0.13655   1.000
    C23     C    0.64277   0.80226   0.13650   1.000
    C24     C    0.35372   0.16922   0.03207   1.000
    C25     C    0.35372   0.66922   0.03207   1.000
    C26     C    0.85372   0.16922   0.03207   1.000
    C27     C    0.85372   0.66922   0.03207   1.000
    C28     C    0.39272   0.44773   0.36344   1.000
    C29     C    0.39273   0.94773   0.36344   1.000
    C30     C    0.89273   0.44773   0.36344   1.000
    C31     C    0.89273   0.94773   0.36344   1.000
