# CIF file generated by openbabel 2.4.90, see http://openbabel.sf.net
data_I
_chemical_name_common ''
_cell_length_a 11.272
_cell_length_b 24.217
_cell_length_c 23.214
_cell_angle_alpha 98.079
_cell_angle_beta 90.007
_cell_angle_gamma 89.999
_space_group_name_H-M_alt 'P 1'
_space_group_name_Hall 'P 1'
loop_
    _symmetry_equiv_pos_as_xyz
    x,y,z
loop_
    _atom_site_label
    _atom_site_type_symbol
    _atom_site_fract_x
    _atom_site_fract_y
    _atom_site_fract_z
    _atom_site_occupancy
    Zr0     Zr   0.14597   0.44700   0.45459   1.000
    Zr1     Zr   0.14597   0.94699   0.45459   1.000
    Zr2     Zr   0.64597   0.44700   0.45459   1.000
    Zr3     Zr   0.64597   0.94699   0.45459   1.000
    Zr4     Zr   0.39598   0.30299   0.04540   1.000
    Zr5     Zr   0.39598   0.80299   0.04540   1.000
    Zr6     Zr   0.89598   0.30299   0.04540   1.000
    Zr7     Zr   0.89598   0.80299   0.04540   1.000
    Zr8     Zr   0.35402   0.05301   0.54538   1.000
    Zr9     Zr   0.35402   0.55300   0.54538   1.000
    Zr10    Zr   0.85402   0.05301   0.54538   1.000
    Zr11    Zr   0.85403   0.55300   0.54538   1.000
    Zr12    Zr   0.10401   0.19701   0.95458   1.000
    Zr13    Zr   0.10402   0.69701   0.95458   1.000
    Zr14    Zr   0.60401   0.19701   0.95458   1.000
    Zr15    Zr   0.60402   0.69701   0.95458   1.000
    N16     N    0.56235   0.50336   0.85306   1.000
    O17     O    0.57905   0.57454   0.89706   1.000
    N18     N    0.18767   0.25335   0.35306   1.000
    O19     O    0.17097   0.32453   0.39707   1.000
    N20     N    0.31233   0.24665   0.64689   1.000
    O21     O    0.32903   0.17548   0.60289   1.000
    N22     N    0.81233   0.74665   0.64689   1.000
    O23     O    0.82903   0.67547   0.60289   1.000
    N24     N    0.43765   0.49664   0.14686   1.000
    O25     O    0.42095   0.42546   0.10288   1.000
    N26     N    0.06234   0.00336   0.85306   1.000
    O27     O    0.07904   0.07454   0.89706   1.000
    N28     N    0.18767   0.75335   0.35307   1.000
    O29     O    0.17097   0.82452   0.39708   1.000
    N30     N    0.93765   0.49664   0.14686   1.000
    O31     O    0.92095   0.42546   0.10289   1.000
    N32     N    0.93765   0.99664   0.14688   1.000
    O33     O    0.92095   0.92546   0.10290   1.000
    N34     N    0.06234   0.50336   0.85306   1.000
    O35     O    0.07904   0.57454   0.89706   1.000
    N36     N    0.68767   0.75335   0.35306   1.000
    O37     O    0.67097   0.82452   0.39705   1.000
    N38     N    0.56235   0.00336   0.85306   1.000
    O39     O    0.57905   0.07454   0.89706   1.000
    N40     N    0.31233   0.74665   0.64689   1.000
    O41     O    0.32903   0.67547   0.60289   1.000
    N42     N    0.43765   0.99664   0.14688   1.000
    O43     O    0.42095   0.92546   0.10290   1.000
    N44     N    0.81233   0.24665   0.64689   1.000
    O45     O    0.82903   0.17548   0.60289   1.000
    N46     N    0.68767   0.25335   0.35307   1.000
    O47     O    0.67097   0.32453   0.39708   1.000
    C48     C    0.84538   0.68372   0.02716   1.000
    O49     O    0.75993   0.68565   0.00841   1.000
    O50     O    0.87491   0.62654   0.06084   1.000
    O51     O    0.88106   0.71856   0.03110   1.000
    O52     O    0.93307   0.69206   0.00840   1.000
    C53     C    0.13774   0.80282   0.12040   1.000
    O54     O    0.05187   0.80350   0.10155   1.000
    O55     O    0.15409   0.79012   0.19063   1.000
    O56     O    0.22647   0.80236   0.09772   1.000
    C57     C    0.34538   0.68372   0.02716   1.000
    O58     O    0.37491   0.62654   0.06084   1.000
    O59     O    0.25993   0.68565   0.00841   1.000
    O60     O    0.38106   0.71856   0.03110   1.000
    O61     O    0.43307   0.69206   0.00840   1.000
    C62     C    0.86226   0.69718   0.87956   1.000
    O63     O    0.77353   0.69764   0.90224   1.000
    O64     O    0.94813   0.69650   0.89842   1.000
    O65     O    0.84591   0.70988   0.80932   1.000
    C66     C    0.63774   0.80282   0.12040   1.000
    O67     O    0.72647   0.80236   0.09772   1.000
    O68     O    0.65409   0.79012   0.19063   1.000
    O69     O    0.55187   0.80350   0.10155   1.000
    C70     C    0.65461   0.81628   0.97281   1.000
    O71     O    0.62509   0.87345   0.93912   1.000
    O72     O    0.74007   0.81435   0.99157   1.000
    O73     O    0.56693   0.80793   0.99158   1.000
    O74     O    0.61894   0.78144   0.96887   1.000
    C75     C    0.36226   0.69718   0.87956   1.000
    O76     O    0.44813   0.69650   0.89842   1.000
    O77     O    0.27353   0.69764   0.90224   1.000
    O78     O    0.34591   0.70988   0.80932   1.000
    C79     C    0.15461   0.81628   0.97280   1.000
    O80     O    0.12508   0.87345   0.93910   1.000
    O81     O    0.24007   0.81435   0.99155   1.000
    O82     O    0.06693   0.80793   0.99157   1.000
    O83     O    0.11894   0.78144   0.96887   1.000
    C84     C    0.61230   0.55283   0.62040   1.000
    O85     O    0.59595   0.54013   0.69063   1.000
    O86     O    0.52356   0.55237   0.59772   1.000
    O87     O    0.69816   0.55351   0.60154   1.000
    C88     C    0.88770   0.44717   0.37957   1.000
    O89     O    0.90405   0.45987   0.30932   1.000
    O90     O    0.97644   0.44763   0.40226   1.000
    O91     O    0.80184   0.44649   0.39843   1.000
    C92     C    0.90294   0.43373   0.52716   1.000
    O93     O    0.87425   0.37656   0.56085   1.000
    O94     O    0.86811   0.46857   0.53110   1.000
    O95     O    0.81609   0.44207   0.50840   1.000
    O96     O    0.98796   0.43565   0.50841   1.000
    C97     C    0.40464   0.43373   0.52716   1.000
    O98     O    0.31694   0.44207   0.50840   1.000
    O99     O    0.36896   0.46857   0.53110   1.000
    O100    O    0.49008   0.43565   0.50841   1.000
    O101    O    0.37510   0.37656   0.56085   1.000
    C102    C    0.59536   0.56627   0.47281   1.000
    O103    O    0.50991   0.56435   0.49156   1.000
    O104    O    0.63104   0.53143   0.46887   1.000
    O105    O    0.68305   0.55793   0.49157   1.000
    O106    O    0.62490   0.62344   0.43912   1.000
    C107    C    0.38770   0.44717   0.37957   1.000
    O108    O    0.40405   0.45987   0.30932   1.000
    O109    O    0.47644   0.44763   0.40226   1.000
    O110    O    0.30184   0.44649   0.39843   1.000
    C111    C    0.09536   0.56627   0.47281   1.000
    O112    O    0.00991   0.56435   0.49156   1.000
    O113    O    0.13104   0.53143   0.46887   1.000
    O114    O    0.18305   0.55793   0.49157   1.000
    O115    O    0.12490   0.62344   0.43911   1.000
    C116    C    0.11230   0.55283   0.62040   1.000
    O117    O    0.19816   0.55351   0.60154   1.000
    O118    O    0.02356   0.55237   0.59772   1.000
    O119    O    0.09594   0.54013   0.69063   1.000
    C120    C    0.65461   0.31628   0.97281   1.000
    O121    O    0.62509   0.37346   0.93912   1.000
    O122    O    0.56693   0.30794   0.99158   1.000
    O123    O    0.61893   0.28144   0.96887   1.000
    O124    O    0.74007   0.31435   0.99156   1.000
    C125    C    0.13773   0.30282   0.12040   1.000
    O126    O    0.15409   0.29012   0.19063   1.000
    O127    O    0.22647   0.30236   0.09772   1.000
    O128    O    0.05187   0.30350   0.10155   1.000
    C129    C    0.63773   0.30282   0.12041   1.000
    O130    O    0.55187   0.30350   0.10155   1.000
    O131    O    0.65409   0.29012   0.19065   1.000
    O132    O    0.72647   0.30236   0.09773   1.000
    C133    C    0.86226   0.19718   0.87956   1.000
    O134    O    0.94813   0.19650   0.89842   1.000
    O135    O    0.77353   0.19764   0.90224   1.000
    O136    O    0.84591   0.20988   0.80932   1.000
    C137    C    0.84538   0.18373   0.02716   1.000
    O138    O    0.75993   0.18565   0.00841   1.000
    O139    O    0.88106   0.21856   0.03110   1.000
    O140    O    0.93307   0.19207   0.00840   1.000
    O141    O    0.87491   0.12655   0.06085   1.000
    C142    C    0.15461   0.31628   0.97281   1.000
    O143    O    0.12508   0.37346   0.93912   1.000
    O144    O    0.06693   0.30794   0.99158   1.000
    O145    O    0.11893   0.28144   0.96887   1.000
    O146    O    0.24007   0.31435   0.99156   1.000
    C147    C    0.36226   0.19718   0.87956   1.000
    O148    O    0.34591   0.20988   0.80932   1.000
    O149    O    0.27353   0.19764   0.90224   1.000
    O150    O    0.44813   0.19650   0.89842   1.000
    C151    C    0.34538   0.18373   0.02716   1.000
    O152    O    0.37491   0.12655   0.06085   1.000
    O153    O    0.25993   0.18565   0.00841   1.000
    O154    O    0.38106   0.21856   0.03110   1.000
    O155    O    0.43307   0.19207   0.00840   1.000
    C156    C    0.11229   0.05283   0.62040   1.000
    O157    O    0.09594   0.04013   0.69063   1.000
    O158    O    0.19816   0.05351   0.60154   1.000
    O159    O    0.02355   0.05237   0.59772   1.000
    C160    C    0.59536   0.06627   0.47271   1.000
    O161    O    0.50991   0.06435   0.49151   1.000
    O162    O    0.63104   0.03143   0.46875   1.000
    O163    O    0.68305   0.05793   0.49145   1.000
    O164    O    0.62489   0.12345   0.43907   1.000
    C165    C    0.40464   0.93373   0.52716   1.000
    O166    O    0.31694   0.94207   0.50840   1.000
    O167    O    0.36896   0.96857   0.53110   1.000
    O168    O    0.49009   0.93565   0.50841   1.000
    O169    O    0.37510   0.87655   0.56085   1.000
    C170    C    0.90294   0.93373   0.52716   1.000
    O171    O    0.98796   0.93565   0.50841   1.000
    O172    O    0.87426   0.87655   0.56085   1.000
    O173    O    0.81610   0.94207   0.50840   1.000
    O174    O    0.86811   0.96857   0.53110   1.000
    C175    C    0.09536   0.06627   0.47281   1.000
    O176    O    0.13104   0.03143   0.46887   1.000
    O177    O    0.18305   0.05794   0.49157   1.000
    O178    O    0.12489   0.12345   0.43912   1.000
    O179    O    0.00991   0.06435   0.49156   1.000
    C180    C    0.88770   0.94717   0.37957   1.000
    O181    O    0.90405   0.95987   0.30932   1.000
    O182    O    0.80184   0.94649   0.39843   1.000
    O183    O    0.97644   0.94763   0.40226   1.000
    C184    C    0.61230   0.05283   0.62037   1.000
    O185    O    0.59594   0.04013   0.69062   1.000
    O186    O    0.69816   0.05351   0.60153   1.000
    O187    O    0.52355   0.05237   0.59768   1.000
    C188    C    0.38770   0.94717   0.37957   1.000
    O189    O    0.40405   0.95987   0.30932   1.000
    O190    O    0.47644   0.94763   0.40226   1.000
    O191    O    0.30184   0.94649   0.39843   1.000
loop_
    _geom_bond_atom_site_label_1
    _geom_bond_atom_site_label_2
    _geom_bond_distance
    _geom_bond_site_symmetry_2
    _ccdc_geom_bond_type
    N16    O17       1.88547      .   S
    Zr15   O17       3.08954      .   S
    N18    O19       1.88550      .   S
    Zr0    O19       3.08956      .   S
    N20    O21       1.88543      .   S
    Zr8    O21       3.08954      .   S
    N22    O23       1.88539      .   S
    Zr11   O23       3.08949      .   S
    N24    O25       1.88518      .   S
    Zr4    O25       3.08929      .   S
    N26    O27       1.88550      .   S
    Zr12   O27       3.08957      .   S
    N28    O29       1.88549      .   S
    Zr1    O29       3.08956      .   S
    N30    O31       1.88521      .   S
    Zr6    O31       3.08931      .   S
    N32    O33       1.88530      .   S
    Zr7    O33       3.08938      .   S
    N34    O35       1.88548      .   S
    Zr13   O35       3.08956      .   S
    N36    O37       1.88532      .   S
    Zr3    O37       3.08972      .   S
    N38    O39       1.88547      .   S
    Zr14   O39       3.08955      .   S
    N40    O41       1.88544      .   S
    Zr9    O41       3.08953      .   S
    N42    O43       1.88529      .   S
    Zr5    O43       3.08938      .   S
    N44    O45       1.88544      .   S
    Zr10   O45       3.08954      .   S
    N46    O47       1.88550      .   S
    Zr2    O47       3.08955      .   S
    C48    O49       1.06071      .   S
    Zr15   O49       2.19591  1_556   S
    C48    O50       1.71569      .   S
    N30    O50       4.01867      .   S
    C48    O51       0.92746      .   S
    Zr7    O51       2.03184      .   S
    C48    O52       1.11013      .   S
    Zr13   O52       2.30883  1_456   S
    C53    O54       1.06327      .   S
    Zr7    O54       2.18663  1_655   S
    C53    O55       1.71107      .   S
    N28    O55       4.01227      .   S
    C53    O56       1.12961      .   S
    Zr5    O56       2.26548      .   S
    C57    O58       1.71566      .   S
    N24    O58       4.01860      .   S
    C57    O59       1.06071      .   S
    Zr13   O59       2.19591  1_556   S
    C57    O60       0.92746      .   S
    Zr5    O60       2.03184      .   S
    C57    O61       1.11013      .   S
    Zr15   O61       2.30884  1_556   S
    C62    O63       1.12971      .   S
    Zr15   O63       2.26564      .   S
    C62    O64       1.06336      .   S
    Zr13   O64       2.18684  1_455   S
    C62    O65       1.71111      .   S
    N22    O65       4.01226      .   S
    C66    O67       1.12962      .   S
    Zr7    O67       2.26548      .   S
    C66    O68       1.71105      .   S
    N36    O68       4.01222      .   S
    C66    O69       1.06327      .   S
    Zr5    O69       2.18664      .   S
    C70    O71       1.71589      .   S
    N38    O71       4.01927  1_545   S
    C70    O72       1.06075      .   S
    Zr7    O72       2.19597  1_554   S
    C70    O73       1.11013      .   S
    Zr5    O73       2.30889  1_554   S
    C70    O74       0.92744      .   S
    Zr15   O74       2.03180      .   S
    C75    O76       1.06336      .   S
    Zr15   O76       2.18684      .   S
    C75    O77       1.12971      .   S
    Zr13   O77       2.26563      .   S
    C75    O78       1.71107      .   S
    N40    O78       4.01214      .   S
    C79    O80       1.71594      .   S
    N26    O80       4.01910  1_545   S
    C79    O81       1.06072      .   S
    Zr5    O81       2.19619  1_554   S
    C79    O82       1.11019      .   S
    Zr7    O82       2.30896  1_654   S
    C79    O83       0.92745      .   S
    Zr13   O83       2.03180      .   S
    C84    O85       1.71107      .   S
    N16    O85       4.01209      .   S
    C84    O86       1.12969      .   S
    Zr9    O86       2.26557      .   S
    C84    O87       1.06340      .   S
    Zr11   O87       2.18692      .   S
    C88    O89       1.71153      .   S
    N30    O89       4.01281      .   S
    C88    O90       1.12969      .   S
    Zr0    O90       2.26552  1_455   S
    C88    O91       1.06337      .   S
    Zr2    O91       2.18689      .   S
    C92    O93       1.71402      .   S
    N44    O93       4.01751      .   S
    C92    O94       0.92339      .   S
    Zr11   O94       2.03111      .   S
    C92    O95       1.10155      .   S
    Zr2    O95       2.30066      .   S
    C92    O96       1.05633      .   S
    Zr0    O96       2.21490  1_455   S
    C97    O98       1.11005      .   S
    Zr0    O98       2.30863      .   S
    C97    O99       0.92749      .   S
    Zr9    O99       2.03187      .   S
    C97    O100      1.06068      .   S
    Zr2    O100      2.19573      .   S
    C97    O101      1.71584      .   S
    N20    O101      4.01916      .   S
    C102   O103      1.06067      .   S
    Zr9    O103      2.19573      .   S
    C102   O104      0.92750      .   S
    Zr2    O104      2.03190      .   S
    C102   O105      1.11006      .   S
    Zr11   O105      2.30865      .   S
    C102   O106      1.71590      .   S
    N36    O106      4.01929      .   S
    C107   O108      1.71157      .   S
    N24    O108      4.01293      .   S
    C107   O109      1.12970      .   S
    Zr2    O109      2.26553      .   S
    C107   O110      1.06337      .   S
    Zr0    O110      2.18689      .   S
    C111   O112      1.06069      .   S
    Zr11   O112      2.19573  1_655   S
    C111   O113      0.92751      .   S
    Zr0    O113      2.03190      .   S
    C111   O114      1.11008      .   S
    Zr9    O114      2.30867      .   S
    C111   O115      1.71588      .   S
    N28    O115      4.01921      .   S
    C116   O117      1.06339      .   S
    Zr9    O117      2.18692      .   S
    C116   O118      1.12968      .   S
    Zr11   O118      2.26556  1_655   S
    C116   O119      1.71107      .   S
    N34    O119      4.01209      .   S
    C120   O121      1.71585      .   S
    N16    O121      4.01920      .   S
    C120   O122      1.11014      .   S
    Zr4    O122      2.30890  1_554   S
    C120   O123      0.92745      .   S
    Zr14   O123      2.03184      .   S
    C120   O124      1.06073      .   S
    Zr6    O124      2.19599  1_554   S
    C125   O126      1.71104      .   S
    N18    O126      4.01219      .   S
    C125   O127      1.12961      .   S
    Zr4    O127      2.26548      .   S
    C125   O128      1.06327      .   S
    Zr6    O128      2.18662  1_655   S
    C129   O130      1.06335      .   S
    Zr4    O130      2.18675      .   S
    C129   O131      1.71100      .   S
    N46    O131      4.01190      .   S
    C129   O132      1.12971      .   S
    Zr6    O132      2.26559      .   S
    C133   O134      1.06336      .   S
    Zr12   O134      2.18683  1_455   S
    C133   O135      1.12971      .   S
    Zr14   O135      2.26564      .   S
    C133   O136      1.71107      .   S
    N44    O136      4.01213      .   S
    C137   O138      1.06071      .   S
    Zr14   O138      2.19591  1_556   S
    C137   O139      0.92745      .   S
    Zr6    O139      2.03182      .   S
    C137   O140      1.11012      .   S
    Zr12   O140      2.30882  1_456   S
    C137   O141      1.71577      .   S
    N32    O141      4.01893  1_565   S
    C142   O143      1.71587      .   S
    N34    O143      4.01923      .   S
    C142   O144      1.11013      .   S
    Zr6    O144      2.30888  1_654   S
    C142   O145      0.92745      .   S
    Zr12   O145      2.03184      .   S
    C142   O146      1.06073      .   S
    Zr4    O146      2.19599  1_554   S
    C147   O148      1.71108      .   S
    N20    O148      4.01217      .   S
    C147   O149      1.12971      .   S
    Zr12   O149      2.26564      .   S
    C147   O150      1.06337      .   S
    Zr14   O150      2.18685      .   S
    C151   O152      1.71577      .   S
    N42    O152      4.01893  1_565   S
    C151   O153      1.06071      .   S
    Zr12   O153      2.19591  1_556   S
    C151   O154      0.92746      .   S
    Zr4    O154      2.03183      .   S
    C151   O155      1.11012      .   S
    Zr14   O155      2.30883  1_556   S
    C156   O157      1.71106      .   S
    N26    O157      4.01207      .   S
    C156   O158      1.06339      .   S
    Zr8    O158      2.18691      .   S
    C156   O159      1.12968      .   S
    Zr10   O159      2.26557  1_655   S
    C160   O161      1.06114      .   S
    Zr8    O161      2.19640      .   S
    C160   O162      0.92752      .   S
    Zr3    O162      2.03194  1_565   S
    C160   O163      1.10981      .   S
    Zr10   O163      2.31018      .   S
    C160   O164      1.71525      .   S
    N46    O164      4.01862      .   S
    C165   O166      1.11005      .   S
    Zr1    O166      2.30862      .   S
    C165   O167      0.92753      .   S
    Zr8    O167      2.03199  1_545   S
    C165   O168      1.06068      .   S
    Zr3    O168      2.19574      .   S
    C165   O169      1.71586      .   S
    N40    O169      4.01919      .   S
    C170   O171      1.05634      .   S
    Zr1    O171      2.21493  1_455   S
    C170   O172      1.71400      .   S
    N22    O172      4.01741      .   S
    C170   O173      1.10155      .   S
    Zr3    O173      2.30067      .   S
    C170   O174      0.92342      .   S
    Zr10   O174      2.03122  1_545   S
    C175   O176      0.92754      .   S
    Zr1    O176      2.03201  1_565   S
    C175   O177      1.11005      .   S
    Zr8    O177      2.30864      .   S
    C175   O178      1.71589      .   S
    N18    O178      4.01933      .   S
    C175   O179      1.06067      .   S
    Zr10   O179      2.19572  1_655   S
    C180   O181      1.71143      .   S
    N32    O181      4.01254      .   S
    C180   O182      1.06337      .   S
    Zr3    O182      2.18689      .   S
    C180   O183      1.12969      .   S
    Zr1    O183      2.26552  1_455   S
    C184   O185      1.71141      .   S
    N38    O185      4.01245      .   S
    C184   O186      1.06325      .   S
    Zr10   O186      2.18671      .   S
    C184   O187      1.12977      .   S
    Zr8    O187      2.26511      .   S
    C188   O189      1.71143      .   S
    N42    O189      4.01254      .   S
    C188   O190      1.12970      .   S
    Zr3    O190      2.26554      .   S
    C188   O191      1.06337      .   S
    Zr1    O191      2.18689      .   S
