# CIF file generated by openbabel 2.4.90, see http://openbabel.sf.net
data_I
_chemical_name_common ''
_cell_length_a 11.272
_cell_length_b 24.217
_cell_length_c 23.214
_cell_angle_alpha 98.079
_cell_angle_beta 90.007
_cell_angle_gamma 89.999
_space_group_name_H-M_alt 'P 1'
_space_group_name_Hall 'P 1'
loop_
    _symmetry_equiv_pos_as_xyz
    x,y,z
loop_
    _atom_site_label
    _atom_site_type_symbol
    _atom_site_fract_x
    _atom_site_fract_y
    _atom_site_fract_z
    _atom_site_occupancy
    C0      C    0.14597   0.44700   0.45459   1.000
    C1      C    0.14597   0.94699   0.45459   1.000
    C2      C    0.64597   0.44700   0.45459   1.000
    C3      C    0.64597   0.94699   0.45459   1.000
    C4      C    0.39598   0.30299   0.04540   1.000
    C5      C    0.39598   0.80299   0.04540   1.000
    C6      C    0.89598   0.30299   0.04540   1.000
    C7      C    0.89598   0.80299   0.04540   1.000
    C8      C    0.35402   0.05301   0.54538   1.000
    C9      C    0.35402   0.55300   0.54538   1.000
    C10     C    0.85402   0.05301   0.54538   1.000
    C11     C    0.85403   0.55300   0.54538   1.000
    C12     C    0.10401   0.19701   0.95458   1.000
    C13     C    0.10402   0.69701   0.95458   1.000
    C14     C    0.60401   0.19701   0.95458   1.000
    C15     C    0.60402   0.69701   0.95458   1.000
    C16     C    0.02757   0.32662   0.52592   1.000
    C17     C    0.02758   0.82662   0.52592   1.000
    C18     C    0.52757   0.32662   0.52592   1.000
    C19     C    0.52758   0.82662   0.52592   1.000
    C20     C    0.18711   0.39255   0.58279   1.000
    C21     C    0.18711   0.89255   0.58279   1.000
    C22     C    0.68711   0.39255   0.58279   1.000
    C23     C    0.68711   0.89255   0.58279   1.000
    C24     C    0.47586   0.23513   0.55794   1.000
    C25     C    0.47587   0.73512   0.55794   1.000
    C26     C    0.97586   0.23513   0.55794   1.000
    C27     C    0.97587   0.73512   0.55794   1.000
    C28     C    0.13408   0.30175   0.61494   1.000
    C29     C    0.13408   0.80174   0.61494   1.000
    C30     C    0.63408   0.30175   0.61494   1.000
    C31     C    0.63409   0.80174   0.61494   1.000
    C32     C    0.46507   0.15999   0.66603   1.000
    C33     C    0.46507   0.65998   0.66600   1.000
    C34     C    0.96507   0.15999   0.66600   1.000
    C35     C    0.96507   0.65998   0.66600   1.000
    C36     C    0.12379   0.23641   0.70710   1.000
    C37     C    0.12380   0.73641   0.70709   1.000
    C38     C    0.62380   0.23641   0.70710   1.000
    C39     C    0.62380   0.73641   0.70700   1.000
    C40     C    0.00403   0.16177   0.77260   1.000
    C41     C    0.00403   0.66176   0.77260   1.000
    C42     C    0.50403   0.16177   0.77260   1.000
    C43     C    0.50403   0.66176   0.77260   1.000
    C44     C    0.16198   0.23519   0.81276   1.000
    C45     C    0.16198   0.73518   0.81276   1.000
    C46     C    0.66198   0.23519   0.81276   1.000
    C47     C    0.66199   0.73518   0.81276   1.000
    C48     C    0.27760   0.42337   0.97402   1.000
    C49     C    0.27760   0.92337   0.97402   1.000
    C50     C    0.77760   0.42337   0.97402   1.000
    C51     C    0.77760   0.92337   0.97402   1.000
    C52     C    0.43701   0.35750   0.91723   1.000
    C53     C    0.43702   0.85750   0.91723   1.000
    C54     C    0.93701   0.35750   0.91720   1.000
    C55     C    0.93702   0.85750   0.91723   1.000
    C56     C    0.22594   0.01487   0.94198   1.000
    C57     C    0.22594   0.51486   0.94198   1.000
    C58     C    0.72594   0.01487   0.94198   1.000
    C59     C    0.72594   0.51486   0.94198   1.000
    C60     C    0.38403   0.44831   0.88507   1.000
    C61     C    0.38403   0.94830   0.88507   1.000
    C62     C    0.88403   0.44831   0.88507   1.000
    C63     C    0.88403   0.94830   0.88507   1.000
    C64     C    0.21507   0.09005   0.83394   1.000
    C65     C    0.21508   0.59004   0.83394   1.000
    C66     C    0.71508   0.09005   0.83394   1.000
    C67     C    0.71508   0.59004   0.83394   1.000
    C68     C    0.37387   0.01356   0.79281   1.000
    C69     C    0.37388   0.51355   0.79281   1.000
    C70     C    0.87387   0.01356   0.79281   1.000
    C71     C    0.87388   0.51355   0.79281   1.000
    C72     C    0.25407   0.08827   0.72738   1.000
    C73     C    0.25407   0.58826   0.72738   1.000
    C74     C    0.75407   0.08827   0.72738   1.000
    C75     C    0.75407   0.58826   0.72738   1.000
    C76     C    0.41209   0.01479   0.68716   1.000
    C77     C    0.41210   0.51478   0.68716   1.000
    C78     C    0.91209   0.01479   0.68716   1.000
    C79     C    0.91210   0.51478   0.68716   1.000
    C80     C    0.47242   0.17338   0.47405   1.000
    C81     C    0.47243   0.67338   0.47400   1.000
    C82     C    0.97242   0.17338   0.47400   1.000
    C83     C    0.97243   0.67338   0.47400   1.000
    C84     C    0.31289   0.10745   0.41718   1.000
    C85     C    0.31289   0.60745   0.41718   1.000
    C86     C    0.81288   0.10745   0.41718   1.000
    C87     C    0.81289   0.60745   0.41718   1.000
    C88     C    0.02413   0.26488   0.44200   1.000
    C89     C    0.02414   0.76487   0.44202   1.000
    C90     C    0.52413   0.26488   0.44200   1.000
    C91     C    0.52414   0.76487   0.44202   1.000
    C92     C    0.36592   0.19825   0.38503   1.000
    C93     C    0.36592   0.69825   0.38503   1.000
    C94     C    0.86592   0.19825   0.38503   1.000
    C95     C    0.86592   0.69825   0.38503   1.000
    C96     C    0.03493   0.34002   0.33394   1.000
    C97     C    0.03494   0.84001   0.33394   1.000
    C98     C    0.53493   0.34002   0.33394   1.000
    C99     C    0.53494   0.84001   0.33394   1.000
    C100    C    0.37620   0.26359   0.29280   1.000
    C101    C    0.37621   0.76359   0.29287   1.000
    C102    C    0.87621   0.26359   0.29280   1.000
    C103    C    0.87621   0.76359   0.29287   1.000
    C104    C    0.49597   0.33824   0.22737   1.000
    C105    C    0.49597   0.83823   0.22737   1.000
    C106    C    0.99597   0.33824   0.22737   1.000
    C107    C    0.99597   0.83824   0.22737   1.000
    C108    C    0.33802   0.26482   0.18721   1.000
    C109    C    0.33802   0.76482   0.18721   1.000
    C110    C    0.83802   0.26482   0.18721   1.000
    C111    C    0.83802   0.76482   0.18721   1.000
    C112    C    0.22240   0.07663   0.02594   1.000
    C113    C    0.22241   0.57663   0.02594   1.000
    C114    C    0.72241   0.07663   0.02594   1.000
    C115    C    0.72241   0.57663   0.02594   1.000
    C116    C    0.06299   0.14250   0.08273   1.000
    C117    C    0.06299   0.64250   0.08273   1.000
    C118    C    0.56299   0.14250   0.08273   1.000
    C119    C    0.56299   0.64250   0.08273   1.000
    C120    C    0.27407   0.48514   0.05799   1.000
    C121    C    0.27407   0.98513   0.05799   1.000
    C122    C    0.77407   0.48514   0.05799   1.000
    C123    C    0.77407   0.98513   0.05799   1.000
    C124    C    0.11597   0.05170   0.11490   1.000
    C125    C    0.11597   0.55169   0.11400   1.000
    C126    C    0.61597   0.05170   0.11490   1.000
    C127    C    0.61598   0.55169   0.11400   1.000
    C128    C    0.28492   0.40996   0.16603   1.000
    C129    C    0.28493   0.90995   0.16603   1.000
    C130    C    0.78492   0.40996   0.16603   1.000
    C131    C    0.78493   0.90995   0.16603   1.000
    C132    C    0.12612   0.48645   0.20716   1.000
    C133    C    0.12613   0.98645   0.20716   1.000
    C134    C    0.62612   0.48645   0.20716   1.000
    C135    C    0.62613   0.98645   0.20716   1.000
    C136    C    0.24593   0.41174   0.27259   1.000
    C137    C    0.24593   0.91173   0.27250   1.000
    C138    C    0.74593   0.41174   0.27259   1.000
    C139    C    0.74593   0.91173   0.27250   1.000
    C140    C    0.08790   0.48522   0.31281   1.000
    C141    C    0.08791   0.98521   0.31281   1.000
    C142    C    0.58790   0.48522   0.31281   1.000
    C143    C    0.58791   0.98521   0.31281   1.000
    C144    C    0.39630   0.41923   0.53206   1.000
    C145    C    0.39630   0.91923   0.53206   1.000
    C146    C    0.89630   0.41923   0.53206   1.000
    C147    C    0.89630   0.91923   0.53207   1.000
    C148    C    0.36130   0.36499   0.55231   1.000
    C149    C    0.36130   0.86498   0.55231   1.000
    C150    C    0.86130   0.36499   0.55231   1.000
    C151    C    0.86130   0.86498   0.55231   1.000
    C152    C    0.44199   0.32059   0.54571   1.000
    C153    C    0.44200   0.82059   0.54571   1.000
    C154    C    0.94199   0.32059   0.54571   1.000
    C155    C    0.94200   0.82059   0.54570   1.000
    C156    C    0.25042   0.35820   0.57782   1.000
    C157    C    0.25042   0.85819   0.57782   1.000
    C158    C    0.75042   0.35819   0.57782   1.000
    C159    C    0.75042   0.85819   0.57782   1.000
    C160    C    0.41305   0.26954   0.56307   1.000
    C161    C    0.41306   0.76953   0.56307   1.000
    C162    C    0.91306   0.26954   0.56307   1.000
    C163    C    0.91307   0.76953   0.56307   1.000
    C164    C    0.22052   0.30737   0.59570   1.000
    C165    C    0.22053   0.80737   0.59578   1.000
    C166    C    0.72053   0.30737   0.59578   1.000
    C167    C    0.72053   0.80737   0.59578   1.000
    C168    C    0.30145   0.26314   0.58749   1.000
    C169    C    0.30146   0.76313   0.58749   1.000
    C170    C    0.80146   0.26314   0.58749   1.000
    C171    C    0.80146   0.76313   0.58740   1.000
    C172    C    0.29303   0.19889   0.68089   1.000
    C173    C    0.29304   0.69889   0.68089   1.000
    C174    C    0.79303   0.19890   0.68089   1.000
    C175    C    0.79304   0.69889   0.68089   1.000
    C176    C    0.40041   0.17753   0.69837   1.000
    C177    C    0.40041   0.67752   0.69837   1.000
    C178    C    0.90040   0.17753   0.69837   1.000
    C179    C    0.90041   0.67752   0.69837   1.000
    C180    C    0.20756   0.22079   0.72161   1.000
    C181    C    0.20756   0.72078   0.72160   1.000
    C182    C    0.70756   0.22079   0.72161   1.000
    C183    C    0.70757   0.72078   0.72160   1.000
    C184    C    0.42153   0.17837   0.75775   1.000
    C185    C    0.42154   0.67837   0.75775   1.000
    C186    C    0.92154   0.17837   0.75775   1.000
    C187    C    0.92154   0.67837   0.75775   1.000
    C188    C    0.22915   0.22033   0.78054   1.000
    C189    C    0.22916   0.72033   0.78054   1.000
    C190    C    0.72916   0.22033   0.78054   1.000
    C191    C    0.72916   0.72032   0.78054   1.000
    C192    C    0.33633   0.19930   0.79914   1.000
    C193    C    0.33634   0.69929   0.79914   1.000
    C194    C    0.83634   0.19930   0.79914   1.000
    C195    C    0.83634   0.69929   0.79914   1.000
    C196    C    0.35722   0.19774   0.86343   1.000
    C197    C    0.35723   0.69773   0.86343   1.000
    C198    C    0.85723   0.19774   0.86343   1.000
    C199    C    0.85723   0.69773   0.86343   1.000
    C200    C    0.14627   0.33078   0.96791   1.000
    C201    C    0.14627   0.83078   0.96790   1.000
    C202    C    0.64628   0.33078   0.96791   1.000
    C203    C    0.64628   0.83078   0.96790   1.000
    C204    C    0.11126   0.38503   0.94767   1.000
    C205    C    0.11127   0.88503   0.94760   1.000
    C206    C    0.61126   0.38503   0.94767   1.000
    C207    C    0.61126   0.88503   0.94768   1.000
    C208    C    0.19200   0.42941   0.95425   1.000
    C209    C    0.19200   0.92941   0.95425   1.000
    C210    C    0.69200   0.42941   0.95425   1.000
    C211    C    0.69200   0.92941   0.95425   1.000
    C212    C    0.50036   0.39184   0.92218   1.000
    C213    C    0.50036   0.89184   0.92218   1.000
    C214    C    0.00000   0.39184   0.92218   1.000
    C215    C    0.00000   0.89184   0.92218   1.000
    C216    C    0.16310   0.48047   0.93687   1.000
    C217    C    0.16310   0.98046   0.93687   1.000
    C218    C    0.66310   0.48047   0.93687   1.000
    C219    C    0.66310   0.98046   0.93687   1.000
    C220    C    0.47050   0.44266   0.90421   1.000
    C221    C    0.47050   0.94266   0.90421   1.000
    C222    C    0.97050   0.44266   0.90421   1.000
    C223    C    0.97050   0.94266   0.90421   1.000
    C224    C    0.05147   0.48688   0.91247   1.000
    C225    C    0.05147   0.98688   0.91247   1.000
    C226    C    0.55147   0.48688   0.91247   1.000
    C227    C    0.55147   0.98688   0.91247   1.000
    C228    C    0.04306   0.05112   0.81900   1.000
    C229    C    0.04307   0.55111   0.81900   1.000
    C230    C    0.54307   0.05112   0.81900   1.000
    C231    C    0.54307   0.55111   0.81900   1.000
    C232    C    0.15043   0.07250   0.80159   1.000
    C233    C    0.15043   0.57249   0.80159   1.000
    C234    C    0.65043   0.07250   0.80159   1.000
    C235    C    0.65043   0.57249   0.80159   1.000
    C236    C    0.45763   0.02920   0.77832   1.000
    C237    C    0.45763   0.52920   0.77832   1.000
    C238    C    0.95763   0.02920   0.77832   1.000
    C239    C    0.95763   0.52920   0.77832   1.000
    C240    C    0.17158   0.07166   0.74222   1.000
    C241    C    0.17158   0.57165   0.74222   1.000
    C242    C    0.67158   0.07166   0.74222   1.000
    C243    C    0.67158   0.57165   0.74222   1.000
    C244    C    0.47924   0.02966   0.71939   1.000
    C245    C    0.47924   0.52966   0.71939   1.000
    C246    C    0.97924   0.02966   0.71939   1.000
    C247    C    0.97924   0.52966   0.71939   1.000
    C248    C    0.08640   0.05072   0.70082   1.000
    C249    C    0.08640   0.55071   0.70082   1.000
    C250    C    0.58640   0.05072   0.70082   1.000
    C251    C    0.58640   0.55071   0.70082   1.000
    C252    C    0.10727   0.05227   0.63653   1.000
    C253    C    0.10727   0.55227   0.63653   1.000
    C254    C    0.60727   0.05227   0.63653   1.000
    C255    C    0.60727   0.55227   0.63653   1.000
    C256    C    0.10369   0.08077   0.46791   1.000
    C257    C    0.10369   0.58077   0.46790   1.000
    C258    C    0.60369   0.08077   0.46791   1.000
    C259    C    0.60369   0.58077   0.46791   1.000
    C260    C    0.13870   0.13501   0.44766   1.000
    C261    C    0.13870   0.63501   0.44765   1.000
    C262    C    0.63870   0.13502   0.44766   1.000
    C263    C    0.63870   0.63501   0.44765   1.000
    C264    C    0.05800   0.17941   0.45426   1.000
    C265    C    0.05801   0.67941   0.45426   1.000
    C266    C    0.55800   0.17941   0.45426   1.000
    C267    C    0.55801   0.67941   0.45426   1.000
    C268    C    0.24958   0.14181   0.42215   1.000
    C269    C    0.24958   0.64180   0.42215   1.000
    C270    C    0.74958   0.14181   0.42215   1.000
    C271    C    0.74958   0.64180   0.42215   1.000
    C272    C    0.08694   0.23047   0.43690   1.000
    C273    C    0.08695   0.73046   0.43690   1.000
    C274    C    0.58694   0.23047   0.43690   1.000
    C275    C    0.58695   0.73046   0.43690   1.000
    C276    C    0.27947   0.19263   0.40419   1.000
    C277    C    0.27948   0.69262   0.40419   1.000
    C278    C    0.77947   0.19263   0.40419   1.000
    C279    C    0.77948   0.69262   0.40419   1.000
    C280    C    0.19854   0.23687   0.41248   1.000
    C281    C    0.19855   0.73686   0.41248   1.000
    C282    C    0.69854   0.23687   0.41248   1.000
    C283    C    0.69855   0.73686   0.41248   1.000
    C284    C    0.20697   0.30111   0.31908   1.000
    C285    C    0.20697   0.80111   0.31908   1.000
    C286    C    0.70697   0.30111   0.31908   1.000
    C287    C    0.70698   0.80111   0.31908   1.000
    C288    C    0.09959   0.32248   0.30160   1.000
    C289    C    0.09960   0.82247   0.30160   1.000
    C290    C    0.59960   0.32248   0.30160   1.000
    C291    C    0.59960   0.82247   0.30160   1.000
    C292    C    0.29244   0.27922   0.27830   1.000
    C293    C    0.29244   0.77921   0.27836   1.000
    C294    C    0.79244   0.27922   0.27830   1.000
    C295    C    0.79244   0.77921   0.27836   1.000
    C296    C    0.07846   0.32164   0.24220   1.000
    C297    C    0.07847   0.82163   0.24220   1.000
    C298    C    0.57846   0.32164   0.24220   1.000
    C299    C    0.57847   0.82163   0.24220   1.000
    C300    C    0.27084   0.27968   0.21943   1.000
    C301    C    0.27085   0.77967   0.21943   1.000
    C302    C    0.77084   0.27968   0.21943   1.000
    C303    C    0.77085   0.77967   0.21943   1.000
    C304    C    0.16366   0.30071   0.20083   1.000
    C305    C    0.16367   0.80071   0.20083   1.000
    C306    C    0.66366   0.30071   0.20083   1.000
    C307    C    0.66367   0.80071   0.20083   1.000
    C308    C    0.14277   0.30227   0.13650   1.000
    C309    C    0.14277   0.80226   0.13650   1.000
    C310    C    0.64277   0.30227   0.13655   1.000
    C311    C    0.64277   0.80226   0.13650   1.000
    C312    C    0.35372   0.16922   0.03207   1.000
    C313    C    0.35372   0.66922   0.03207   1.000
    C314    C    0.85372   0.16922   0.03207   1.000
    C315    C    0.85372   0.66922   0.03207   1.000
    C316    C    0.38874   0.11497   0.05229   1.000
    C317    C    0.38874   0.61497   0.05229   1.000
    C318    C    0.88874   0.11497   0.05229   1.000
    C319    C    0.88874   0.61497   0.05229   1.000
    C320    C    0.30800   0.07059   0.04572   1.000
    C321    C    0.30800   0.57059   0.04572   1.000
    C322    C    0.80800   0.07059   0.04572   1.000
    C323    C    0.80800   0.57059   0.04572   1.000
    C324    C    0.99964   0.10816   0.07779   1.000
    C325    C    0.99964   0.60816   0.07779   1.000
    C326    C    0.49964   0.10816   0.07779   1.000
    C327    C    0.49964   0.60816   0.07779   1.000
    C328    C    0.33691   0.01954   0.06310   1.000
    C329    C    0.33691   0.51953   0.06300   1.000
    C330    C    0.83691   0.01954   0.06310   1.000
    C331    C    0.83691   0.51953   0.06310   1.000
    C332    C    0.02950   0.05734   0.09576   1.000
    C333    C    0.02951   0.55734   0.09576   1.000
    C334    C    0.52950   0.05734   0.09576   1.000
    C335    C    0.52951   0.55734   0.09570   1.000
    C336    C    0.44853   0.01312   0.08700   1.000
    C337    C    0.44853   0.51312   0.08749   1.000
    C338    C    0.94853   0.01312   0.08700   1.000
    C339    C    0.94853   0.51312   0.08749   1.000
    C340    C    0.45693   0.44889   0.18092   1.000
    C341    C    0.45693   0.94889   0.18092   1.000
    C342    C    0.95693   0.44889   0.18092   1.000
    C343    C    0.95693   0.94889   0.18092   1.000
    C344    C    0.34957   0.42751   0.19838   1.000
    C345    C    0.34957   0.92750   0.19838   1.000
    C346    C    0.84957   0.42751   0.19838   1.000
    C347    C    0.84957   0.92750   0.19838   1.000
    C348    C    0.04237   0.47081   0.22165   1.000
    C349    C    0.04237   0.97080   0.22165   1.000
    C350    C    0.54237   0.47080   0.22165   1.000
    C351    C    0.54237   0.97080   0.22165   1.000
    C352    C    0.32842   0.42835   0.25775   1.000
    C353    C    0.32842   0.92834   0.25775   1.000
    C354    C    0.82842   0.42835   0.25775   1.000
    C355    C    0.82842   0.92834   0.25775   1.000
    C356    C    0.02076   0.47035   0.28058   1.000
    C357    C    0.02076   0.97034   0.28058   1.000
    C358    C    0.52076   0.47035   0.28058   1.000
    C359    C    0.52076   0.97034   0.28058   1.000
    C360    C    0.41359   0.44929   0.29910   1.000
    C361    C    0.41360   0.94928   0.29910   1.000
    C362    C    0.91360   0.44929   0.29910   1.000
    C363    C    0.91360   0.94928   0.29910   1.000
    C364    C    0.39272   0.44773   0.36344   1.000
    C365    C    0.39273   0.94773   0.36344   1.000
    C366    C    0.89273   0.44773   0.36344   1.000
    C367    C    0.89273   0.94773   0.36344   1.000
    C368    C    0.25911   0.19692   0.60590   1.000
    C369    C    0.25912   0.69692   0.60590   1.000
    C370    C    0.75911   0.19692   0.60590   1.000
    C371    C    0.75912   0.69692   0.60593   1.000
    C372    C    0.00914   0.05310   0.89401   1.000
    C373    C    0.00914   0.55309   0.89401   1.000
    C374    C    0.50914   0.05310   0.89401   1.000
    C375    C    0.50914   0.55309   0.89401   1.000
    C376    C    0.24088   0.30308   0.39404   1.000
    C377    C    0.24089   0.80308   0.39400   1.000
    C378    C    0.74089   0.30308   0.39404   1.000
    C379    C    0.74089   0.80308   0.39400   1.000
    C380    C    0.49086   0.44691   0.10596   1.000
    C381    C    0.49086   0.94691   0.10596   1.000
    C382    C    0.99086   0.44691   0.10596   1.000
    C383    C    0.99086   0.94691   0.10596   1.000
    C384    C    0.50509   0.42815   0.52474   1.000
    C385    C    0.50509   0.92815   0.52474   1.000
    C386    C    0.00000   0.42815   0.52474   1.000
    C387    C    0.00000   0.92815   0.52474   1.000
    C388    C    0.33744   0.15560   0.57240   1.000
    C389    C    0.33744   0.65559   0.57240   1.000
    C390    C    0.83744   0.15560   0.57240   1.000
    C391    C    0.83744   0.65559   0.57240   1.000
    C392    C    0.13073   0.19201   0.59974   1.000
    C393    C    0.13074   0.69201   0.59974   1.000
    C394    C    0.63074   0.19201   0.59974   1.000
    C395    C    0.63074   0.69201   0.59974   1.000
    C396    C    0.26557   0.19919   0.89527   1.000
    C397    C    0.26558   0.69919   0.89527   1.000
    C398    C    0.76558   0.19920   0.89527   1.000
    C399    C    0.76558   0.69919   0.89527   1.000
    C400    C    0.46398   0.19462   0.87998   1.000
    C401    C    0.46398   0.69462   0.87998   1.000
    C402    C    0.96398   0.19462   0.87998   1.000
    C403    C    0.96398   0.69462   0.87998   1.000
    C404    C    0.31252   0.45381   0.52468   1.000
    C405    C    0.31252   0.95381   0.52468   1.000
    C406    C    0.81252   0.45381   0.52468   1.000
    C407    C    0.81252   0.95381   0.52468   1.000
    C408    C    0.25506   0.32186   0.97523   1.000
    C409    C    0.25506   0.82186   0.97520   1.000
    C410    C    0.75506   0.32186   0.97523   1.000
    C411    C    0.75506   0.82186   0.97524   1.000
    C412    C    0.08747   0.09442   0.92755   1.000
    C413    C    0.08747   0.59442   0.92755   1.000
    C414    C    0.58747   0.09442   0.92755   1.000
    C415    C    0.58747   0.59442   0.92755   1.000
    C416    C    0.38076   0.05801   0.90020   1.000
    C417    C    0.38076   0.55800   0.90020   1.000
    C418    C    0.88076   0.05801   0.90020   1.000
    C419    C    0.88077   0.55800   0.90020   1.000
    C420    C    0.01560   0.05082   0.60469   1.000
    C421    C    0.01561   0.55082   0.60469   1.000
    C422    C    0.51560   0.05082   0.60460   1.000
    C423    C    0.51560   0.55082   0.60469   1.000
    C424    C    0.21401   0.05539   0.61998   1.000
    C425    C    0.21402   0.55539   0.61998   1.000
    C426    C    0.71401   0.05539   0.61998   1.000
    C427    C    0.71402   0.55539   0.61998   1.000
    C428    C    0.06250   0.29620   0.97529   1.000
    C429    C    0.06250   0.79619   0.97529   1.000
    C430    C    0.56250   0.29620   0.97529   1.000
    C431    C    0.56250   0.79619   0.97529   1.000
    C432    C    0.99490   0.07185   0.47523   1.000
    C433    C    0.99490   0.57185   0.47523   1.000
    C434    C    0.49491   0.07185   0.47523   1.000
    C435    C    0.49491   0.57185   0.47523   1.000
    C436    C    0.16256   0.34440   0.42758   1.000
    C437    C    0.16256   0.84440   0.42758   1.000
    C438    C    0.66256   0.34440   0.42758   1.000
    C439    C    0.66256   0.84440   0.42750   1.000
    C440    C    0.36926   0.30799   0.40023   1.000
    C441    C    0.36927   0.80799   0.40023   1.000
    C442    C    0.86926   0.30799   0.40023   1.000
    C443    C    0.86927   0.80799   0.40023   1.000
    C444    C    0.23442   0.30081   0.10470   1.000
    C445    C    0.23442   0.80081   0.10470   1.000
    C446    C    0.73442   0.30081   0.10470   1.000
    C447    C    0.73442   0.80081   0.10470   1.000
    C448    C    0.03601   0.30538   0.11999   1.000
    C449    C    0.03602   0.80538   0.11999   1.000
    C450    C    0.53602   0.30538   0.11999   1.000
    C451    C    0.53602   0.80538   0.11999   1.000
    C452    C    0.18747   0.04619   0.47529   1.000
    C453    C    0.18747   0.54619   0.47529   1.000
    C454    C    0.68747   0.04619   0.47500   1.000
    C455    C    0.68747   0.54619   0.47529   1.000
    C456    C    0.24493   0.17814   0.02474   1.000
    C457    C    0.24493   0.67814   0.02474   1.000
    C458    C    0.74493   0.17815   0.02474   1.000
    C459    C    0.74493   0.67814   0.02474   1.000
    C460    C    0.41253   0.40558   0.07242   1.000
    C461    C    0.41253   0.90558   0.07242   1.000
    C462    C    0.91253   0.40558   0.07242   1.000
    C463    C    0.91253   0.90558   0.07242   1.000
    C464    C    0.11924   0.44200   0.09970   1.000
    C465    C    0.11924   0.94199   0.09977   1.000
    C466    C    0.61924   0.44200   0.09970   1.000
    C467    C    0.61924   0.94199   0.09977   1.000
    C468    C    0.48439   0.44918   0.39529   1.000
    C469    C    0.48439   0.94918   0.39529   1.000
    C470    C    0.98439   0.44918   0.39529   1.000
    C471    C    0.98439   0.94918   0.39529   1.000
    C472    C    0.28598   0.44461   0.37999   1.000
    C473    C    0.28598   0.94461   0.37999   1.000
    C474    C    0.78598   0.44461   0.37999   1.000
    C475    C    0.78598   0.94461   0.37999   1.000
    C476    C    0.43749   0.20381   0.02468   1.000
    C477    C    0.43749   0.70380   0.02468   1.000
    C478    C    0.93749   0.20381   0.02468   1.000
    C479    C    0.93749   0.70380   0.02468   1.000
    O480    O    0.89561   0.68651   0.02837   1.000
    O481    O    0.89561   0.18652   0.02837   1.000
    O482    O    0.39561   0.68651   0.02837   1.000
    O483    O    0.39561   0.18652   0.02837   1.000
    O484    O    0.29933   0.17368   0.02840   1.000
    O485    O    0.29933   0.67368   0.02840   1.000
    O486    O    0.79933   0.17368   0.02840   1.000
    O487    O    0.79933   0.67368   0.02840   1.000
    O488    O    0.26520   0.07361   0.03583   1.000
    O489    O    0.26520   0.57361   0.03583   1.000
    O490    O    0.76520   0.07361   0.03583   1.000
    O491    O    0.76520   0.57361   0.03583   1.000
    O492    O    0.87123   0.64209   0.04218   1.000
    O493    O    0.87123   0.14210   0.04218   1.000
    O494    O    0.37123   0.14210   0.04218   1.000
    O495    O    0.37123   0.64209   0.04218   1.000
    O496    O    0.31520   0.30190   0.07505   1.000
    O497    O    0.46600   0.30419   0.08270   1.000
    O498    O    0.31520   0.80190   0.07505   1.000
    O499    O    0.46600   0.80419   0.08270   1.000
    O500    O    0.81520   0.30190   0.07505   1.000
    O501    O    0.96600   0.30419   0.08270   1.000
    O502    O    0.81520   0.80190   0.07505   1.000
    O503    O    0.96600   0.80419   0.08270   1.000
    O504    O    0.34837   0.09278   0.04901   1.000
    O505    O    0.32245   0.04506   0.05441   1.000
    O506    O    0.34837   0.59278   0.04901   1.000
    O507    O    0.32245   0.54506   0.05436   1.000
    O508    O    0.84837   0.09278   0.04901   1.000
    O509    O    0.82245   0.04506   0.05441   1.000
    O510    O    0.84837   0.59278   0.04901   1.000
    O511    O    0.82245   0.54506   0.05441   1.000
    O512    O    0.94419   0.61156   0.06504   1.000
    O513    O    0.94419   0.11157   0.06504   1.000
    O514    O    0.44419   0.61156   0.06504   1.000
    O515    O    0.44419   0.11156   0.06504   1.000
    O516    O    0.30549   0.50234   0.06050   1.000
    O517    O    0.30549   0.00234   0.06055   1.000
    O518    O    0.80549   0.50234   0.06055   1.000
    O519    O    0.80549   0.00234   0.06055   1.000
    O520    O    0.39272   0.51633   0.07525   1.000
    O521    O    0.89272   0.51633   0.07530   1.000
    O522    O    0.89272   0.01633   0.07505   1.000
    O523    O    0.39272   0.01633   0.07505   1.000
    O524    O    0.45170   0.92624   0.08919   1.000
    O525    O    0.95170   0.92624   0.08919   1.000
    O526    O    0.95170   0.42624   0.08919   1.000
    O527    O    0.45169   0.42624   0.08919   1.000
    O528    O    0.53132   0.62533   0.08026   1.000
    O529    O    0.51457   0.58275   0.08675   1.000
    O530    O    0.53131   0.12533   0.08026   1.000
    O531    O    0.51457   0.08275   0.08677   1.000
    O532    O    0.03131   0.12533   0.08026   1.000
    O533    O    0.01457   0.08275   0.08677   1.000
    O534    O    0.03131   0.62533   0.08026   1.000
    O535    O    0.01457   0.58275   0.08677   1.000
    O536    O    0.98902   0.03523   0.09138   1.000
    O537    O    0.96970   0.98001   0.09648   1.000
    O538    O    0.48902   0.03523   0.09138   1.000
    O539    O    0.46970   0.98001   0.09648   1.000
    O540    O    0.98902   0.53523   0.09162   1.000
    O541    O    0.96970   0.48001   0.09673   1.000
    O542    O    0.48902   0.53523   0.09160   1.000
    O543    O    0.46970   0.48001   0.09673   1.000
    O544    O    0.57274   0.55451   0.10485   1.000
    O545    O    0.07274   0.05452   0.10533   1.000
    O546    O    0.07274   0.55452   0.10488   1.000
    O547    O    0.57274   0.05452   0.10533   1.000
    O548    O    0.05505   0.44445   0.10283   1.000
    O549    O    0.55505   0.44445   0.10283   1.000
    O550    O    0.05505   0.94445   0.10286   1.000
    O551    O    0.55505   0.94445   0.10286   1.000
    O552    O    0.68860   0.80153   0.12060   1.000
    O553    O    0.18859   0.30154   0.12060   1.000
    O554    O    0.18860   0.80153   0.12060   1.000
    O555    O    0.68859   0.30154   0.12063   1.000
    O556    O    0.97390   0.44790   0.14344   1.000
    O557    O    0.47390   0.44790   0.14344   1.000
    O558    O    0.47390   0.94790   0.14344   1.000
    O559    O    0.97390   0.94790   0.14344   1.000
    O560    O    0.58940   0.80382   0.12824   1.000
    O561    O    0.58939   0.30383   0.12827   1.000
    O562    O    0.08939   0.80382   0.12824   1.000
    O563    O    0.08939   0.30382   0.12824   1.000
    O564    O    0.15322   0.30149   0.16867   1.000
    O565    O    0.15322   0.80148   0.16867   1.000
    O566    O    0.65322   0.80148   0.16867   1.000
    O567    O    0.65321   0.30149   0.16869   1.000
    O568    O    0.31725   0.41873   0.18221   1.000
    O569    O    0.81725   0.91873   0.18221   1.000
    O570    O    0.81725   0.41873   0.18221   1.000
    O571    O    0.31725   0.91873   0.18221   1.000
    O572    O    0.90325   0.43820   0.18965   1.000
    O573    O    0.99965   0.45985   0.20128   1.000
    O574    O    0.40325   0.43820   0.18965   1.000
    O575    O    0.49965   0.45985   0.20128   1.000
    O576    O    0.40325   0.93819   0.18965   1.000
    O577    O    0.49965   0.95984   0.20128   1.000
    O578    O    0.90325   0.93820   0.18965   1.000
    O579    O    0.99965   0.95984   0.20128   1.000
    O580    O    0.80443   0.27225   0.20332   1.000
    O581    O    0.80443   0.77224   0.20332   1.000
    O582    O    0.30443   0.77224   0.20332   1.000
    O583    O    0.30443   0.27225   0.20332   1.000
    O584    O    0.83900   0.92792   0.22807   1.000
    O585    O    0.83899   0.42793   0.22807   1.000
    O586    O    0.33899   0.92792   0.22807   1.000
    O587    O    0.33899   0.42793   0.22807   1.000
    O588    O    0.71725   0.29019   0.21013   1.000
    O589    O    0.62106   0.31117   0.22152   1.000
    O590    O    0.21726   0.79019   0.21013   1.000
    O591    O    0.12107   0.81117   0.22152   1.000
    O592    O    0.21725   0.29019   0.21013   1.000
    O593    O    0.12106   0.31117   0.22152   1.000
    O594    O    0.71726   0.79019   0.21013   1.000
    O595    O    0.62107   0.81117   0.22152   1.000
    O596    O    0.08425   0.97862   0.21441   1.000
    O597    O    0.08424   0.47863   0.21441   1.000
    O598    O    0.58425   0.47863   0.21441   1.000
    O599    O    0.58425   0.97862   0.21441   1.000
    O600    O    0.78165   0.77944   0.24889   1.000
    O601    O    0.78164   0.27945   0.24887   1.000
    O602    O    0.28164   0.77944   0.24889   1.000
    O603    O    0.28164   0.27945   0.24887   1.000
    O604    O    0.53157   0.97057   0.25112   1.000
    O605    O    0.53156   0.47058   0.25112   1.000
    O606    O    0.03157   0.97057   0.25112   1.000
    O607    O    0.03156   0.47058   0.25112   1.000
    O608    O    0.53722   0.82993   0.23479   1.000
    O609    O    0.03722   0.32994   0.23479   1.000
    O610    O    0.03722   0.82993   0.23479   1.000
    O611    O    0.53722   0.32994   0.23479   1.000
    O612    O    0.58903   0.82205   0.27190   1.000
    O613    O    0.58903   0.32206   0.27190   1.000
    O614    O    0.08903   0.82205   0.27190   1.000
    O615    O    0.08903   0.32206   0.27190   1.000
    O616    O    0.28717   0.42004   0.26517   1.000
    O617    O    0.37100   0.43882   0.27842   1.000
    O618    O    0.28717   0.92004   0.26512   1.000
    O619    O    0.37101   0.93881   0.27842   1.000
    O620    O    0.78717   0.42004   0.26517   1.000
    O621    O    0.87101   0.43882   0.27842   1.000
    O622    O    0.78718   0.92004   0.26512   1.000
    O623    O    0.87101   0.93881   0.27842   1.000
    O624    O    0.33432   0.27141   0.28555   1.000
    O625    O    0.24970   0.29017   0.29869   1.000
    O626    O    0.83432   0.27141   0.28555   1.000
    O627    O    0.74970   0.29017   0.29869   1.000
    O628    O    0.33433   0.77140   0.28562   1.000
    O629    O    0.24971   0.79016   0.29872   1.000
    O630    O    0.83433   0.77140   0.28562   1.000
    O631    O    0.74971   0.79016   0.29872   1.000
    O632    O    0.46718   0.95981   0.28984   1.000
    O633    O    0.55433   0.97778   0.29670   1.000
    O634    O    0.96718   0.95981   0.28984   1.000
    O635    O    0.05433   0.97778   0.29670   1.000
    O636    O    0.46717   0.45982   0.28984   1.000
    O637    O    0.55433   0.47778   0.29670   1.000
    O638    O    0.96718   0.45982   0.28984   1.000
    O639    O    0.05433   0.47778   0.29670   1.000
    O640    O    0.90316   0.94851   0.33127   1.000
    O641    O    0.90316   0.44851   0.33127   1.000
    O642    O    0.40316   0.44851   0.33127   1.000
    O643    O    0.40316   0.94851   0.33127   1.000
    O644    O    0.15329   0.81179   0.31034   1.000
    O645    O    0.06727   0.83124   0.31777   1.000
    O646    O    0.65329   0.81179   0.31034   1.000
    O647    O    0.56727   0.83124   0.31777   1.000
    O648    O    0.65328   0.31179   0.31034   1.000
    O649    O    0.56726   0.33125   0.31777   1.000
    O650    O    0.15328   0.31180   0.31034   1.000
    O651    O    0.06726   0.33125   0.31777   1.000
    O652    O    0.72393   0.80209   0.35654   1.000
    O653    O    0.72393   0.30210   0.35656   1.000
    O654    O    0.22393   0.80209   0.35654   1.000
    O655    O    0.22393   0.30210   0.35656   1.000
    O656    O    0.33935   0.94617   0.37172   1.000
    O657    O    0.43856   0.94845   0.37936   1.000
    O658    O    0.83936   0.94617   0.37172   1.000
    O659    O    0.93856   0.94845   0.37936   1.000
    O660    O    0.83935   0.44617   0.37172   1.000
    O661    O    0.93856   0.44846   0.37936   1.000
    O662    O    0.33935   0.44617   0.37172   1.000
    O663    O    0.43856   0.44846   0.37936   1.000
    O664    O    0.71598   0.44580   0.41729   1.000
    O665    O    0.21598   0.94580   0.41729   1.000
    O666    O    0.21598   0.44580   0.41729   1.000
    O667    O    0.71598   0.94580   0.41729   1.000
    O668    O    0.32269   0.19544   0.39461   1.000
    O669    O    0.82270   0.69544   0.39461   1.000
    O670    O    0.82269   0.19544   0.39461   1.000
    O671    O    0.32270   0.69544   0.39461   1.000
    O672    O    0.80508   0.80553   0.39711   1.000
    O673    O    0.71972   0.76997   0.40324   1.000
    O674    O    0.70173   0.82374   0.41075   1.000
    O675    O    0.30508   0.80553   0.39711   1.000
    O676    O    0.21972   0.76997   0.40324   1.000
    O677    O    0.20173   0.82374   0.41079   1.000
    O678    O    0.30507   0.30554   0.39713   1.000
    O679    O    0.21971   0.26997   0.40326   1.000
    O680    O    0.20172   0.32374   0.41081   1.000
    O681    O    0.80508   0.30554   0.39713   1.000
    O682    O    0.71971   0.26997   0.40326   1.000
    O683    O    0.70172   0.32374   0.41081   1.000
    O684    O    0.06518   0.44809   0.42494   1.000
    O685    O    0.06518   0.94809   0.42494   1.000
    O686    O    0.56518   0.44809   0.42494   1.000
    O687    O    0.56518   0.94809   0.42494   1.000
    O688    O    0.23900   0.21475   0.40834   1.000
    O689    O    0.26452   0.16722   0.41317   1.000
    O690    O    0.23901   0.71474   0.40834   1.000
    O691    O    0.26453   0.66721   0.41317   1.000
    O692    O    0.73901   0.21475   0.40834   1.000
    O693    O    0.76452   0.16722   0.41317   1.000
    O694    O    0.73901   0.71474   0.40834   1.000
    O695    O    0.76453   0.66721   0.41317   1.000
    O696    O    0.14274   0.23367   0.42469   1.000
    O697    O    0.14275   0.73366   0.42469   1.000
    O698    O    0.64274   0.23367   0.42469   1.000
    O699    O    0.64275   0.73366   0.42469   1.000
    O700    O    0.78124   0.62463   0.41967   1.000
    O701    O    0.78123   0.12463   0.41967   1.000
    O702    O    0.28124   0.62463   0.41967   1.000
    O703    O    0.28123   0.12463   0.41967   1.000
    O704    O    0.69414   0.13841   0.43491   1.000
    O705    O    0.19414   0.13841   0.43491   1.000
    O706    O    0.69414   0.63841   0.43490   1.000
    O707    O    0.19414   0.63841   0.43490   1.000
    O708    O    0.55554   0.74767   0.43946   1.000
    O709    O    0.57248   0.70494   0.44558   1.000
    O710    O    0.55554   0.24767   0.43945   1.000
    O711    O    0.57247   0.20494   0.44558   1.000
    O712    O    0.05554   0.74767   0.43946   1.000
    O713    O    0.07248   0.70494   0.44558   1.000
    O714    O    0.05553   0.24767   0.43945   1.000
    O715    O    0.07247   0.20494   0.44558   1.000
    O716    O    0.59835   0.65721   0.45096   1.000
    O717    O    0.62120   0.60789   0.45778   1.000
    O718    O    0.09835   0.65721   0.45096   1.000
    O719    O    0.12120   0.60789   0.45777   1.000
    O720    O    0.59835   0.15721   0.45096   1.000
    O721    O    0.62120   0.10789   0.45778   1.000
    O722    O    0.09835   0.15721   0.45096   1.000
    O723    O    0.12119   0.10789   0.45778   1.000
    O724    O    0.51522   0.67639   0.46413   1.000
    O725    O    0.51521   0.17640   0.46416   1.000
    O726    O    0.01522   0.67639   0.46413   1.000
    O727    O    0.01521   0.17640   0.46413   1.000
    O728    O    0.04930   0.57631   0.47157   1.000
    O729    O    0.14558   0.56348   0.47159   1.000
    O730    O    0.04930   0.07631   0.47157   1.000
    O731    O    0.14558   0.06348   0.47160   1.000
    O732    O    0.64558   0.06348   0.47145   1.000
    O733    O    0.54930   0.07631   0.47157   1.000
    O734    O    0.54930   0.57631   0.47157   1.000
    O735    O    0.64558   0.56348   0.47160   1.000
    O736    O    0.35441   0.93652   0.52837   1.000
    O737    O    0.85441   0.93652   0.52838   1.000
    O738    O    0.85441   0.43652   0.52837   1.000
    O739    O    0.35441   0.43652   0.52837   1.000
    O740    O    0.94815   0.92369   0.52841   1.000
    O741    O    0.94815   0.42369   0.52840   1.000
    O742    O    0.45070   0.92369   0.52840   1.000
    O743    O    0.45070   0.42369   0.52840   1.000
    O744    O    0.48479   0.82360   0.53582   1.000
    O745    O    0.48478   0.32361   0.53582   1.000
    O746    O    0.98479   0.82360   0.53581   1.000
    O747    O    0.98478   0.32361   0.53582   1.000
    O748    O    0.37880   0.39211   0.54218   1.000
    O749    O    0.37880   0.89211   0.54218   1.000
    O750    O    0.87880   0.39211   0.54218   1.000
    O751    O    0.87880   0.89211   0.54219   1.000
    O752    O    0.43481   0.05191   0.57499   1.000
    O753    O    0.28402   0.05420   0.58268   1.000
    O754    O    0.93482   0.55191   0.57503   1.000
    O755    O    0.78402   0.55420   0.58268   1.000
    O756    O    0.93481   0.05191   0.57503   1.000
    O757    O    0.78402   0.05420   0.58268   1.000
    O758    O    0.43482   0.55191   0.57503   1.000
    O759    O    0.28402   0.55420   0.58268   1.000
    O760    O    0.90165   0.84278   0.54900   1.000
    O761    O    0.92753   0.79506   0.55439   1.000
    O762    O    0.90164   0.34279   0.54901   1.000
    O763    O    0.92752   0.29506   0.55439   1.000
    O764    O    0.40165   0.84279   0.54901   1.000
    O765    O    0.42753   0.79506   0.55439   1.000
    O766    O    0.40164   0.34279   0.54901   1.000
    O767    O    0.42752   0.29506   0.55439   1.000
    O768    O    0.30586   0.36159   0.56507   1.000
    O769    O    0.30586   0.86159   0.56507   1.000
    O770    O    0.80586   0.36159   0.56507   1.000
    O771    O    0.80586   0.86159   0.56507   1.000
    O772    O    0.94447   0.75233   0.56051   1.000
    O773    O    0.94446   0.25233   0.56051   1.000
    O774    O    0.44447   0.75233   0.56051   1.000
    O775    O    0.44446   0.25233   0.56051   1.000
    O776    O    0.35725   0.26634   0.57528   1.000
    O777    O    0.35726   0.76633   0.57528   1.000
    O778    O    0.85726   0.26634   0.57528   1.000
    O779    O    0.85726   0.76633   0.57524   1.000
    O780    O    0.29828   0.67626   0.58915   1.000
    O781    O    0.29827   0.17626   0.58915   1.000
    O782    O    0.79828   0.67626   0.58917   1.000
    O783    O    0.79828   0.17626   0.58915   1.000
    O784    O    0.21877   0.87537   0.58031   1.000
    O785    O    0.23548   0.83278   0.58680   1.000
    O786    O    0.71876   0.37537   0.58031   1.000
    O787    O    0.73547   0.33278   0.58680   1.000
    O788    O    0.71877   0.87537   0.58031   1.000
    O789    O    0.73548   0.83278   0.58680   1.000
    O790    O    0.21876   0.37537   0.58031   1.000
    O791    O    0.23547   0.33278   0.58676   1.000
    O792    O    0.76100   0.78525   0.59159   1.000
    O793    O    0.78029   0.73003   0.59667   1.000
    O794    O    0.26100   0.78525   0.59163   1.000
    O795    O    0.28029   0.73003   0.59670   1.000
    O796    O    0.26099   0.28526   0.59159   1.000
    O797    O    0.28028   0.23003   0.59670   1.000
    O798    O    0.76099   0.28526   0.59163   1.000
    O799    O    0.78028   0.23003   0.59670   1.000
    O800    O    0.17730   0.30456   0.60532   1.000
    O801    O    0.67730   0.30456   0.60536   1.000
    O802    O    0.67731   0.80456   0.60536   1.000
    O803    O    0.17731   0.80456   0.60536   1.000
    O804    O    0.19492   0.19447   0.60282   1.000
    O805    O    0.69493   0.69446   0.60284   1.000
    O806    O    0.69492   0.19447   0.60282   1.000
    O807    O    0.19493   0.69446   0.60282   1.000
    O808    O    0.56144   0.05155   0.62057   1.000
    O809    O    0.56144   0.55154   0.62061   1.000
    O810    O    0.06144   0.55154   0.62061   1.000
    O811    O    0.06144   0.05155   0.62061   1.000
    O812    O    0.77607   0.19791   0.64340   1.000
    O813    O    0.27607   0.19791   0.64340   1.000
    O814    O    0.27608   0.69790   0.64340   1.000
    O815    O    0.77608   0.69790   0.64341   1.000
    O816    O    0.66064   0.55383   0.62826   1.000
    O817    O    0.66064   0.05383   0.62826   1.000
    O818    O    0.16064   0.55383   0.62826   1.000
    O819    O    0.16064   0.05383   0.62826   1.000
    O820    O    0.09684   0.55149   0.66868   1.000
    O821    O    0.09683   0.05150   0.66868   1.000
    O822    O    0.59684   0.55149   0.66868   1.000
    O823    O    0.59683   0.05150   0.66868   1.000
    O824    O    0.43274   0.66875   0.68219   1.000
    O825    O    0.93274   0.16876   0.68219   1.000
    O826    O    0.93274   0.66875   0.68219   1.000
    O827    O    0.43274   0.16876   0.68220   1.000
    O828    O    0.34672   0.68821   0.68963   1.000
    O829    O    0.25030   0.70984   0.70125   1.000
    O830    O    0.84672   0.18821   0.68963   1.000
    O831    O    0.75030   0.20984   0.70125   1.000
    O832    O    0.84672   0.68821   0.68963   1.000
    O833    O    0.75030   0.70984   0.70125   1.000
    O834    O    0.34672   0.18821   0.68963   1.000
    O835    O    0.25030   0.20984   0.70125   1.000
    O836    O    0.94567   0.02222   0.70327   1.000
    O837    O    0.44566   0.02223   0.70327   1.000
    O838    O    0.44567   0.52222   0.70327   1.000
    O839    O    0.94567   0.52222   0.70327   1.000
    O840    O    0.91098   0.67795   0.72806   1.000
    O841    O    0.91097   0.17795   0.72806   1.000
    O842    O    0.41098   0.67795   0.72806   1.000
    O843    O    0.41097   0.17795   0.72806   1.000
    O844    O    0.03282   0.54018   0.71010   1.000
    O845    O    0.12899   0.56118   0.72152   1.000
    O846    O    0.53282   0.54019   0.71010   1.000
    O847    O    0.62899   0.56118   0.72152   1.000
    O848    O    0.53282   0.04019   0.71010   1.000
    O849    O    0.62899   0.06119   0.72152   1.000
    O850    O    0.03282   0.04019   0.71010   1.000
    O851    O    0.12899   0.06119   0.72152   1.000
    O852    O    0.66568   0.72860   0.71430   1.000
    O853    O    0.16568   0.72860   0.71435   1.000
    O854    O    0.16568   0.22860   0.71436   1.000
    O855    O    0.66568   0.22860   0.71436   1.000
    O856    O    0.46843   0.02943   0.74886   1.000
    O857    O    0.46844   0.52943   0.74886   1.000
    O858    O    0.96843   0.02943   0.74886   1.000
    O859    O    0.96844   0.52943   0.74886   1.000
    O860    O    0.21836   0.72055   0.75107   1.000
    O861    O    0.71836   0.72055   0.75107   1.000
    O862    O    0.71836   0.22056   0.75108   1.000
    O863    O    0.21836   0.22056   0.75108   1.000
    O864    O    0.71283   0.57996   0.73480   1.000
    O865    O    0.21282   0.07996   0.73480   1.000
    O866    O    0.21283   0.57996   0.73480   1.000
    O867    O    0.71282   0.07996   0.73480   1.000
    O868    O    0.66101   0.57207   0.77191   1.000
    O869    O    0.66101   0.07208   0.77191   1.000
    O870    O    0.16101   0.57207   0.77191   1.000
    O871    O    0.16100   0.07208   0.77191   1.000
    O872    O    0.46278   0.17007   0.76518   1.000
    O873    O    0.37893   0.18883   0.77845   1.000
    O874    O    0.46279   0.67007   0.76518   1.000
    O875    O    0.37894   0.68883   0.77845   1.000
    O876    O    0.96278   0.17007   0.76518   1.000
    O877    O    0.87894   0.18883   0.77845   1.000
    O878    O    0.96279   0.67006   0.76518   1.000
    O879    O    0.87894   0.68883   0.77845   1.000
    O880    O    0.91576   0.52137   0.78557   1.000
    O881    O    0.00035   0.54015   0.79866   1.000
    O882    O    0.91575   0.02138   0.78557   1.000
    O883    O    0.00035   0.04016   0.79866   1.000
    O884    O    0.41575   0.52137   0.78557   1.000
    O885    O    0.50035   0.54015   0.79866   1.000
    O886    O    0.41575   0.02138   0.78557   1.000
    O887    O    0.50035   0.04016   0.79866   1.000
    O888    O    0.78275   0.70981   0.78984   1.000
    O889    O    0.69557   0.72775   0.79665   1.000
    O890    O    0.78275   0.20981   0.78984   1.000
    O891    O    0.69557   0.22776   0.79665   1.000
    O892    O    0.28275   0.70981   0.78984   1.000
    O893    O    0.19557   0.72775   0.79665   1.000
    O894    O    0.28274   0.20981   0.78984   1.000
    O895    O    0.19557   0.22776   0.79665   1.000
    O896    O    0.84678   0.69851   0.83129   1.000
    O897    O    0.84678   0.19852   0.83129   1.000
    O898    O    0.34678   0.69851   0.83129   1.000
    O899    O    0.34678   0.19852   0.83129   1.000
    O900    O    0.09675   0.06181   0.81029   1.000
    O901    O    0.18275   0.08127   0.81777   1.000
    O902    O    0.09675   0.56180   0.81029   1.000
    O903    O    0.18276   0.58127   0.81777   1.000
    O904    O    0.59675   0.06181   0.81029   1.000
    O905    O    0.68275   0.08127   0.81777   1.000
    O906    O    0.59675   0.56180   0.81029   1.000
    O907    O    0.68276   0.58127   0.81777   1.000
    O908    O    0.02610   0.05211   0.85650   1.000
    O909    O    0.52611   0.55210   0.85650   1.000
    O910    O    0.52610   0.05211   0.85650   1.000
    O911    O    0.02610   0.55210   0.85650   1.000
    O912    O    0.41060   0.19618   0.87171   1.000
    O913    O    0.31140   0.19847   0.87935   1.000
    O914    O    0.41060   0.69618   0.87171   1.000
    O915    O    0.31140   0.69846   0.87935   1.000
    O916    O    0.91060   0.19618   0.87171   1.000
    O917    O    0.81140   0.19847   0.87935   1.000
    O918    O    0.91060   0.69618   0.87171   1.000
    O919    O    0.81140   0.69846   0.87935   1.000
    O920    O    0.53400   0.69581   0.91728   1.000
    O921    O    0.03400   0.19582   0.91728   1.000
    O922    O    0.03400   0.69581   0.91728   1.000
    O923    O    0.53399   0.19582   0.91728   1.000
    O924    O    0.42726   0.44549   0.89464   1.000
    O925    O    0.42727   0.94548   0.89464   1.000
    O926    O    0.92726   0.44549   0.89464   1.000
    O927    O    0.92727   0.94548   0.89464   1.000
    O928    O    0.94495   0.05555   0.89711   1.000
    O929    O    0.03031   0.01999   0.90324   1.000
    O930    O    0.04830   0.07376   0.91078   1.000
    O931    O    0.94495   0.55555   0.89711   1.000
    O932    O    0.03031   0.51999   0.90324   1.000
    O933    O    0.04831   0.57376   0.91078   1.000
    O934    O    0.44495   0.05555   0.89711   1.000
    O935    O    0.53031   0.01999   0.90324   1.000
    O936    O    0.54831   0.07376   0.91078   1.000
    O937    O    0.44495   0.55555   0.89711   1.000
    O938    O    0.53031   0.51999   0.90324   1.000
    O939    O    0.54831   0.57376   0.91078   1.000
    O940    O    0.68479   0.19810   0.92492   1.000
    O941    O    0.18480   0.69810   0.92492   1.000
    O942    O    0.18479   0.19810   0.92492   1.000
    O943    O    0.68480   0.69810   0.92492   1.000
    O944    O    0.51098   0.46477   0.90834   1.000
    O945    O    0.48543   0.41725   0.91319   1.000
    O946    O    0.01099   0.96477   0.90834   1.000
    O947    O    0.98525   0.91725   0.91319   1.000
    O948    O    0.01098   0.46477   0.90834   1.000
    O949    O    0.98525   0.41725   0.91319   1.000
    O950    O    0.51099   0.96477   0.90834   1.000
    O951    O    0.48543   0.91725   0.91319   1.000
    O952    O    0.10729   0.98367   0.92467   1.000
    O953    O    0.60728   0.48367   0.92467   1.000
    O954    O    0.10728   0.48367   0.92467   1.000
    O955    O    0.60729   0.98367   0.92467   1.000
    O956    O    0.96851   0.37467   0.91969   1.000
    O957    O    0.46869   0.37467   0.91970   1.000
    O958    O    0.96851   0.87467   0.91970   1.000
    O959    O    0.46869   0.87467   0.91970   1.000
    O960    O    0.05563   0.38844   0.93493   1.000
    O961    O    0.55581   0.88844   0.93493   1.000
    O962    O    0.55581   0.38844   0.93493   1.000
    O963    O    0.05563   0.88844   0.93489   1.000
    O964    O    0.69452   0.99766   0.93943   1.000
    O965    O    0.67755   0.95494   0.94556   1.000
    O966    O    0.69452   0.49766   0.93943   1.000
    O967    O    0.67755   0.45494   0.94556   1.000
    O968    O    0.19452   0.99766   0.93943   1.000
    O969    O    0.17755   0.95494   0.94556   1.000
    O970    O    0.19452   0.49766   0.93943   1.000
    O971    O    0.17755   0.45494   0.94556   1.000
    O972    O    0.15163   0.90722   0.95093   1.000
    O973    O    0.12877   0.85790   0.95775   1.000
    O974    O    0.15163   0.40722   0.95096   1.000
    O975    O    0.12877   0.35791   0.95779   1.000
    O976    O    0.65163   0.40722   0.95096   1.000
    O977    O    0.62877   0.35791   0.95779   1.000
    O978    O    0.65163   0.90722   0.95096   1.000
    O979    O    0.62877   0.85790   0.95779   1.000
    O980    O    0.73480   0.92639   0.96414   1.000
    O981    O    0.73480   0.42639   0.96414   1.000
    O982    O    0.23480   0.92639   0.96414   1.000
    O983    O    0.23480   0.42639   0.96414   1.000
    O984    O    0.70067   0.82632   0.97157   1.000
    O985    O    0.60439   0.81349   0.97159   1.000
    O986    O    0.20067   0.82632   0.97155   1.000
    O987    O    0.10439   0.81349   0.97159   1.000
    O988    O    0.70067   0.32632   0.97157   1.000
    O989    O    0.60439   0.31349   0.97160   1.000
    O990    O    0.20067   0.32632   0.97157   1.000
    O991    O    0.10439   0.31349   0.97160   1.000
    O992    O    0.57553   0.43758   0.48966   1.000
    O993    O    0.57553   0.93757   0.48966   1.000
    O994    O    0.07299   0.43757   0.48966   1.000
    O995    O    0.07299   0.93757   0.48966   1.000
    O996    O    0.34573   0.10430   0.55889   1.000
    O997    O    0.34573   0.60430   0.55889   1.000
    O998    O    0.84573   0.10430   0.55889   1.000
    O999    O    0.84574   0.60430   0.55889   1.000
    O1000   O    0.22925   0.45041   0.48964   1.000
    O1001   O    0.33327   0.50341   0.53503   1.000
    O1002   O    0.22925   0.95040   0.48964   1.000
    O1003   O    0.33327   0.00341   0.53503   1.000
    O1004   O    0.72925   0.45041   0.48964   1.000
    O1005   O    0.83327   0.50341   0.53503   1.000
    O1006   O    0.72925   0.95040   0.48964   1.000
    O1007   O    0.83327   0.00341   0.53503   1.000
    O1008   O    0.32552   0.31243   0.01032   1.000
    O1009   O    0.32552   0.81242   0.01030   1.000
    O1010   O    0.82552   0.31243   0.01032   1.000
    O1011   O    0.82552   0.81242   0.01032   1.000
    O1012   O    0.09574   0.14572   0.94107   1.000
    O1013   O    0.09574   0.64571   0.94107   1.000
    O1014   O    0.59574   0.14572   0.94107   1.000
    O1015   O    0.59574   0.64571   0.94107   1.000
    O1016   O    0.97924   0.29960   0.01035   1.000
    O1017   O    0.08326   0.24661   0.96493   1.000
    O1018   O    0.97924   0.79959   0.01035   1.000
    O1019   O    0.08326   0.74660   0.96493   1.000
    O1020   O    0.47924   0.29960   0.01035   1.000
    O1021   O    0.58326   0.24661   0.96493   1.000
    O1022   O    0.47924   0.79959   0.01035   1.000
    O1023   O    0.58326   0.74660   0.96493   1.000
    O1024   O    0.92446   0.06243   0.51031   1.000
    O1025   O    0.92446   0.56243   0.51031   1.000
    O1026   O    0.42446   0.06243   0.51031   1.000
    O1027   O    0.42447   0.56243   0.51031   1.000
    O1028   O    0.15426   0.39570   0.44109   1.000
    O1029   O    0.15427   0.89570   0.44109   1.000
    O1030   O    0.65426   0.39570   0.44109   1.000
    O1031   O    0.65427   0.89570   0.44105   1.000
    O1032   O    0.16672   0.99659   0.46494   1.000
    O1033   O    0.27075   0.04960   0.51034   1.000
    O1034   O    0.16672   0.49659   0.46494   1.000
    O1035   O    0.27075   0.54959   0.51034   1.000
    O1036   O    0.66672   0.99659   0.46480   1.000
    O1037   O    0.77075   0.04960   0.51019   1.000
    O1038   O    0.66672   0.49659   0.46494   1.000
    O1039   O    0.77075   0.54960   0.51034   1.000
    O1040   O    0.17447   0.18758   0.98966   1.000
    O1041   O    0.17447   0.68758   0.98966   1.000
    O1042   O    0.67447   0.18758   0.98966   1.000
    O1043   O    0.67447   0.68758   0.98966   1.000
    O1044   O    0.40425   0.35429   0.05891   1.000
    O1045   O    0.40426   0.85429   0.05891   1.000
    O1046   O    0.90426   0.35429   0.05891   1.000
    O1047   O    0.90426   0.85429   0.05891   1.000
    O1048   O    0.41674   0.25340   0.03504   1.000
    O1049   O    0.52075   0.20041   0.98963   1.000
    O1050   O    0.41674   0.75340   0.03504   1.000
    O1051   O    0.52076   0.70041   0.98963   1.000
    O1052   O    0.91674   0.25340   0.03504   1.000
    O1053   O    0.02075   0.20041   0.98963   1.000
    O1054   O    0.91674   0.75340   0.03504   1.000
    O1055   O    0.02076   0.70041   0.98963   1.000
loop_
    _geom_bond_atom_site_label_1
    _geom_bond_atom_site_label_2
    _geom_bond_distance
    _geom_bond_site_symmetry_2
    _ccdc_geom_bond_type
    C479   O480      0.64478      .   S
    C315   O480      0.64478      .   S
    C478   O481      0.64478      .   S
    C314   O481      0.64478      .   S
    C477   O482      0.64479      .   S
    C313   O482      0.64479      .   S
    C476   O483      0.64477      .   S
    C312   O483      0.64477      .   S
    C456   O484      0.63041      .   S
    C312   O484      0.63041      .   S
    C457   O485      0.63041      .   S
    C313   O485      0.63041      .   S
    C458   O486      0.63040      .   S
    C314   O486      0.63040      .   S
    C459   O487      0.63041      .   S
    C315   O487      0.63041      .   S
    C112   O488      0.54358      .   S
    C320   O488      0.54358      .   S
    C113   O489      0.54358      .   S
    C321   O489      0.54358      .   S
    C114   O490      0.54358      .   S
    C322   O490      0.54358      .   S
    C115   O491      0.54358      .   S
    C323   O491      0.54358      .   S
    C315   O492      0.75425      .   S
    C319   O492      0.75425      .   S
    C314   O493      0.75426      .   S
    C318   O493      0.75426      .   S
    C312   O494      0.75427      .   S
    C316   O494      0.75427      .   S
    C313   O495      0.75425      .   S
    C317   O495      0.75425      .   S
    C4     O496      1.14406      .   S
    C444   O496      1.14406      .   S
    C4     O497      1.16879      .   S
    C450   O497      1.16879      .   S
    C5     O498      1.14406      .   S
    C445   O498      1.14406      .   S
    C5     O499      1.16879      .   S
    C451   O499      1.16879      .   S
    C6     O500      1.14406      .   S
    C446   O500      1.14406      .   S
    C6     O501      1.16878      .   S
    C448   O501      1.16878  1_455   S
    C7     O502      1.14406      .   S
    C447   O502      1.14406      .   S
    C7     O503      1.16879      .   S
    C449   O503      1.16879  1_455   S
    C320   O504      0.70009      .   S
    C316   O504      0.70009      .   S
    C320   O505      0.69599      .   S
    C328   O505      0.69599      .   S
    C321   O506      0.70009      .   S
    C317   O506      0.70009      .   S
    C321   O507      0.69551      .   S
    C329   O507      0.69551      .   S
    C322   O508      0.70010      .   S
    C318   O508      0.70010      .   S
    C322   O509      0.69599      .   S
    C330   O509      0.69599      .   S
    C323   O510      0.70010      .   S
    C319   O510      0.70010      .   S
    C323   O511      0.69599      .   S
    C331   O511      0.69599      .   S
    C319   O512      0.70135      .   S
    C325   O512      0.70135      .   S
    C318   O513      0.70134      .   S
    C324   O513      0.70134      .   S
    C317   O514      0.70136      .   S
    C327   O514      0.70136      .   S
    C316   O515      0.70135      .   S
    C326   O515      0.70135      .   S
    C120   O516      0.54357      .   S
    C329   O516      0.54357      .   S
    C121   O517      0.54361  1_565   S
    C328   O517      0.54361      .   S
    C122   O518      0.54358      .   S
    C331   O518      0.54358      .   S
    C123   O519      0.54362  1_565   S
    C330   O519      0.54362      .   S
    C329   O520      0.69913      .   S
    C337   O520      0.69913      .   S
    C331   O521      0.69865      .   S
    C339   O521      0.69865      .   S
    C330   O522      0.69628      .   S
    C338   O522      0.69628      .   S
    C328   O523      0.69628      .   S
    C336   O523      0.69628      .   S
    C461   O524      0.73626      .   S
    C381   O524      0.73626      .   S
    C463   O525      0.73626      .   S
    C383   O525      0.73626      .   S
    C462   O526      0.73626      .   S
    C382   O526      0.73626      .   S
    C460   O527      0.73626      .   S
    C380   O527      0.73626      .   S
    C327   O528      0.54494      .   S
    C119   O528      0.54494      .   S
    C327   O529      0.69724      .   S
    C335   O529      0.69724      .   S
    C326   O530      0.54494      .   S
    C118   O530      0.54494      .   S
    C326   O531      0.69752      .   S
    C334   O531      0.69752      .   S
    C324   O532      0.54495  1_655   S
    C116   O532      0.54495      .   S
    C324   O533      0.69752  1_655   S
    C332   O533      0.69752      .   S
    C325   O534      0.54494  1_655   S
    C117   O534      0.54494      .   S
    C325   O535      0.69752  1_655   S
    C333   O535      0.69752      .   S
    C338   O536      0.70000      .   S
    C332   O536      0.70000  1_455   S
    C338   O537      0.89317  1_545   S
    C383   O537      0.89317      .   S
    C336   O538      0.70000      .   S
    C334   O538      0.70000      .   S
    C336   O539      0.89317  1_545   S
    C381   O539      0.89317      .   S
    C339   O540      0.69980      .   S
    C333   O540      0.69980  1_455   S
    C339   O541      0.89100      .   S
    C382   O541      0.89100      .   S
    C337   O542      0.69979      .   S
    C335   O542      0.69979      .   S
    C337   O543      0.89100      .   S
    C380   O543      0.89100      .   S
    C335   O544      0.53975      .   S
    C127   O544      0.53975      .   S
    C332   O545      0.54384      .   S
    C124   O545      0.54384      .   S
    C333   O546      0.53947      .   S
    C125   O546      0.53947      .   S
    C334   O547      0.54384      .   S
    C126   O547      0.54384      .   S
    C464   O548      0.72876      .   S
    C382   O548      0.72876  1_655   S
    C466   O549      0.72878      .   S
    C380   O549      0.72878      .   S
    C465   O550      0.72870      .   S
    C383   O550      0.72870  1_655   S
    C467   O551      0.72870      .   S
    C381   O551      0.72870      .   S
    C447   O552      0.63369      .   S
    C311   O552      0.63369      .   S
    C444   O553      0.63369      .   S
    C308   O553      0.63369      .   S
    C445   O554      0.63369      .   S
    C309   O554      0.63369      .   S
    C446   O555      0.63403      .   S
    C310   O555      0.63403      .   S
    C382   O556      0.88787      .   S
    C342   O556      0.88787      .   S
    C380   O557      0.88787      .   S
    C340   O557      0.88787      .   S
    C381   O558      0.88788      .   S
    C341   O558      0.88788      .   S
    C383   O559      0.88788      .   S
    C343   O559      0.88788      .   S
    C451   O560      0.63416      .   S
    C311   O560      0.63416      .   S
    C450   O561      0.63433      .   S
    C310   O561      0.63433      .   S
    C449   O562      0.63416      .   S
    C309   O562      0.63416      .   S
    C448   O563      0.63416      .   S
    C308   O563      0.63416      .   S
    C308   O564      0.75873      .   S
    C304   O564      0.75873      .   S
    C309   O565      0.75873      .   S
    C305   O565      0.75873      .   S
    C311   O566      0.75874      .   S
    C307   O566      0.75874      .   S
    C310   O567      0.75817      .   S
    C306   O567      0.75817      .   S
    C128   O568      0.54446      .   S
    C344   O568      0.54446      .   S
    C131   O569      0.54446      .   S
    C347   O569      0.54446      .   S
    C130   O570      0.54445      .   S
    C346   O570      0.54445      .   S
    C129   O571      0.54445      .   S
    C345   O571      0.54445      .   S
    C342   O572      0.69931      .   S
    C346   O572      0.69931      .   S
    C342   O573      0.70033      .   S
    C348   O573      0.70033  1_455   S
    C340   O574      0.69931      .   S
    C344   O574      0.69931      .   S
    C340   O575      0.70033      .   S
    C350   O575      0.70033      .   S
    C341   O576      0.69931      .   S
    C345   O576      0.69931      .   S
    C341   O577      0.70033      .   S
    C351   O577      0.70033      .   S
    C343   O578      0.69931      .   S
    C347   O578      0.69931      .   S
    C343   O579      0.70033      .   S
    C349   O579      0.70033  1_455   S
    C110   O580      0.54468      .   S
    C302   O580      0.54468      .   S
    C111   O581      0.54468      .   S
    C303   O581      0.54468      .   S
    C109   O582      0.54468      .   S
    C301   O582      0.54468      .   S
    C108   O583      0.54468      .   S
    C300   O583      0.54468      .   S
    C347   O584      0.69802      .   S
    C355   O584      0.69802      .   S
    C346   O585      0.69802      .   S
    C354   O585      0.69802      .   S
    C345   O586      0.69802      .   S
    C353   O586      0.69802      .   S
    C344   O587      0.69802      .   S
    C352   O587      0.69802      .   S
    C306   O588      0.70128      .   S
    C302   O588      0.70128      .   S
    C306   O589      0.70086      .   S
    C298   O589      0.70086      .   S
    C305   O590      0.70128      .   S
    C301   O590      0.70128      .   S
    C305   O591      0.70085      .   S
    C297   O591      0.70085      .   S
    C304   O592      0.70128      .   S
    C300   O592      0.70128      .   S
    C304   O593      0.70086      .   S
    C296   O593      0.70086      .   S
    C307   O594      0.70128      .   S
    C303   O594      0.70128      .   S
    C307   O595      0.70086      .   S
    C299   O595      0.70086      .   S
    C133   O596      0.54405      .   S
    C349   O596      0.54405      .   S
    C132   O597      0.54404      .   S
    C348   O597      0.54404      .   S
    C134   O598      0.54404      .   S
    C350   O598      0.54404      .   S
    C135   O599      0.54405      .   S
    C351   O599      0.54405      .   S
    C303   O600      0.69552      .   S
    C295   O600      0.69552      .   S
    C302   O601      0.69483      .   S
    C294   O601      0.69483      .   S
    C301   O602      0.69552      .   S
    C293   O602      0.69552      .   S
    C300   O603      0.69483      .   S
    C292   O603      0.69483      .   S
    C351   O604      0.69557      .   S
    C359   O604      0.69557      .   S
    C350   O605      0.69557      .   S
    C358   O605      0.69557      .   S
    C349   O606      0.69557      .   S
    C357   O606      0.69557      .   S
    C348   O607      0.69557      .   S
    C356   O607      0.69557      .   S
    C105   O608      0.54398      .   S
    C299   O608      0.54398      .   S
    C106   O609      0.54397  1_655   S
    C296   O609      0.54397      .   S
    C107   O610      0.54397  1_655   S
    C297   O610      0.54397      .   S
    C104   O611      0.54398      .   S
    C298   O611      0.54398      .   S
    C299   O612      0.69831      .   S
    C291   O612      0.69831      .   S
    C298   O613      0.69831      .   S
    C290   O613      0.69831      .   S
    C297   O614      0.69831      .   S
    C289   O614      0.69831      .   S
    C296   O615      0.69831      .   S
    C288   O615      0.69831      .   S
    C352   O616      0.54410      .   S
    C136   O616      0.54410      .   S
    C352   O617      0.70060      .   S
    C360   O617      0.70060      .   S
    C353   O618      0.54372      .   S
    C137   O618      0.54372      .   S
    C353   O619      0.70060      .   S
    C361   O619      0.70060      .   S
    C354   O620      0.54410      .   S
    C138   O620      0.54410      .   S
    C354   O621      0.70060      .   S
    C362   O621      0.70060      .   S
    C355   O622      0.54371      .   S
    C139   O622      0.54371      .   S
    C355   O623      0.70060      .   S
    C363   O623      0.70060      .   S
    C292   O624      0.54400      .   S
    C100   O624      0.54400      .   S
    C292   O625      0.70082      .   S
    C284   O625      0.70082      .   S
    C294   O626      0.54399      .   S
    C102   O626      0.54399      .   S
    C294   O627      0.70082      .   S
    C286   O627      0.70082      .   S
    C293   O628      0.54404      .   S
    C101   O628      0.54404      .   S
    C293   O629      0.70038      .   S
    C285   O629      0.70038      .   S
    C295   O630      0.54404      .   S
    C103   O630      0.54404      .   S
    C295   O631      0.70038      .   S
    C287   O631      0.70038      .   S
    C359   O632      0.70103      .   S
    C361   O632      0.70103      .   S
    C359   O633      0.54463      .   S
    C143   O633      0.54463      .   S
    C357   O634      0.70102  1_455   S
    C363   O634      0.70102      .   S
    C357   O635      0.54463      .   S
    C141   O635      0.54463      .   S
    C358   O636      0.70103      .   S
    C360   O636      0.70103      .   S
    C358   O637      0.54463      .   S
    C142   O637      0.54463      .   S
    C356   O638      0.70102  1_455   S
    C362   O638      0.70102      .   S
    C356   O639      0.54463      .   S
    C140   O639      0.54463      .   S
    C363   O640      0.75886      .   S
    C367   O640      0.75886      .   S
    C362   O641      0.75886      .   S
    C366   O641      0.75886      .   S
    C360   O642      0.75887      .   S
    C364   O642      0.75887      .   S
    C361   O643      0.75886      .   S
    C365   O643      0.75886      .   S
    C289   O644      0.69932      .   S
    C285   O644      0.69932      .   S
    C289   O645      0.54446      .   S
    C97    O645      0.54446      .   S
    C291   O646      0.69931      .   S
    C287   O646      0.69931      .   S
    C291   O647      0.54446      .   S
    C99    O647      0.54446      .   S
    C290   O648      0.69931      .   S
    C286   O648      0.69931      .   S
    C290   O649      0.54447      .   S
    C98    O649      0.54447      .   S
    C288   O650      0.69931      .   S
    C284   O650      0.69931      .   S
    C288   O651      0.54447      .   S
    C96    O651      0.54447      .   S
    C287   O652      0.88738      .   S
    C379   O652      0.88738      .   S
    C286   O653      0.88783      .   S
    C378   O653      0.88783      .   S
    C285   O654      0.88738      .   S
    C377   O654      0.88738      .   S
    C284   O655      0.88783      .   S
    C376   O655      0.88783      .   S
    C365   O656      0.63430      .   S
    C473   O656      0.63430      .   S
    C365   O657      0.63404      .   S
    C469   O657      0.63404      .   S
    C367   O658      0.63430      .   S
    C475   O658      0.63430      .   S
    C367   O659      0.63404      .   S
    C471   O659      0.63404      .   S
    C366   O660      0.63430      .   S
    C474   O660      0.63430      .   S
    C366   O661      0.63404      .   S
    C470   O661      0.63404      .   S
    C364   O662      0.63429      .   S
    C472   O662      0.63429      .   S
    C364   O663      0.63404      .   S
    C468   O663      0.63404      .   S
    C474   O664      1.16892      .   S
    C2     O664      1.16892      .   S
    C473   O665      1.16892      .   S
    C1     O665      1.16892      .   S
    C472   O666      1.16892      .   S
    C0     O666      1.16892      .   S
    C475   O667      1.16892      .   S
    C3     O667      1.16892      .   S
    C92    O668      0.54384      .   S
    C276   O668      0.54384      .   S
    C95    O669      0.54383      .   S
    C279   O669      0.54383      .   S
    C94    O670      0.54384      .   S
    C278   O670      0.54384      .   S
    C93    O671      0.54382      .   S
    C277   O671      0.54382      .   S
    C379   O672      0.72873      .   S
    C443   O672      0.72873      .   S
    C379   O673      0.89115      .   S
    C283   O673      0.89115      .   S
    C379   O674      0.73606      .   S
    C439   O674      0.73606      .   S
    C377   O675      0.72873      .   S
    C441   O675      0.72873      .   S
    C377   O676      0.89116      .   S
    C281   O676      0.89116      .   S
    C377   O677      0.73646      .   S
    C437   O677      0.73646      .   S
    C376   O678      0.72869      .   S
    C440   O678      0.72869      .   S
    C376   O679      0.89098      .   S
    C280   O679      0.89098      .   S
    C376   O680      0.73626      .   S
    C436   O680      0.73626      .   S
    C378   O681      0.72869      .   S
    C442   O681      0.72869      .   S
    C378   O682      0.89098      .   S
    C282   O682      0.89098      .   S
    C378   O683      0.73626      .   S
    C438   O683      0.73626      .   S
    C470   O684      1.14400  1_655   S
    C0     O684      1.14400      .   S
    C471   O685      1.14400  1_655   S
    C1     O685      1.14400      .   S
    C468   O686      1.14401      .   S
    C2     O686      1.14401      .   S
    C469   O687      1.14401      .   S
    C3     O687      1.14401      .   S
    C276   O688      0.69982      .   S
    C280   O688      0.69982      .   S
    C276   O689      0.69755      .   S
    C268   O689      0.69755      .   S
    C277   O690      0.69982      .   S
    C281   O690      0.69982      .   S
    C277   O691      0.69755      .   S
    C269   O691      0.69755      .   S
    C278   O692      0.69981      .   S
    C282   O692      0.69981      .   S
    C278   O693      0.69753      .   S
    C270   O693      0.69753      .   S
    C279   O694      0.69982      .   S
    C283   O694      0.69982      .   S
    C279   O695      0.69755      .   S
    C271   O695      0.69755      .   S
    C280   O696      0.69870      .   S
    C272   O696      0.69870      .   S
    C281   O697      0.69868      .   S
    C273   O697      0.69868      .   S
    C282   O698      0.69871      .   S
    C274   O698      0.69871      .   S
    C283   O699      0.69869      .   S
    C275   O699      0.69869      .   S
    C87    O700      0.54495      .   S
    C271   O700      0.54495      .   S
    C86    O701      0.54494      .   S
    C270   O701      0.54494      .   S
    C85    O702      0.54495      .   S
    C269   O702      0.54495      .   S
    C84    O703      0.54494      .   S
    C268   O703      0.54494      .   S
    C270   O704      0.70131      .   S
    C262   O704      0.70131      .   S
    C268   O705      0.70133      .   S
    C260   O705      0.70133      .   S
    C271   O706      0.70129      .   S
    C263   O706      0.70129      .   S
    C269   O707      0.70129      .   S
    C261   O707      0.70129      .   S
    C275   O708      0.54356      .   S
    C91    O708      0.54356      .   S
    C275   O709      0.69600      .   S
    C267   O709      0.69600      .   S
    C274   O710      0.54356      .   S
    C90    O710      0.54356      .   S
    C274   O711      0.69597      .   S
    C266   O711      0.69597      .   S
    C273   O712      0.54356      .   S
    C89    O712      0.54356      .   S
    C273   O713      0.69600      .   S
    C265   O713      0.69600      .   S
    C272   O714      0.54357      .   S
    C88    O714      0.54357      .   S
    C272   O715      0.69598      .   S
    C264   O715      0.69598      .   S
    C263   O716      0.70009      .   S
    C267   O716      0.70009      .   S
    C263   O717      0.75428      .   S
    C259   O717      0.75428      .   S
    C261   O718      0.70010      .   S
    C265   O718      0.70010      .   S
    C261   O719      0.75421      .   S
    C257   O719      0.75421      .   S
    C262   O720      0.70009      .   S
    C266   O720      0.70009      .   S
    C262   O721      0.75430      .   S
    C258   O721      0.75430      .   S
    C260   O722      0.70010      .   S
    C264   O722      0.70010      .   S
    C260   O723      0.75426      .   S
    C256   O723      0.75426      .   S
    C267   O724      0.54334      .   S
    C81    O724      0.54334      .   S
    C266   O725      0.54360      .   S
    C80    O725      0.54360      .   S
    C265   O726      0.54333      .   S
    C83    O726      0.54333  1_655   S
    C264   O727      0.54333      .   S
    C82    O727      0.54333  1_655   S
    C257   O728      0.63044      .   S
    C433   O728      0.63044  1_655   S
    C257   O729      0.64481      .   S
    C453   O729      0.64481      .   S
    C256   O730      0.63040      .   S
    C432   O730      0.63040  1_655   S
    C256   O731      0.64477      .   S
    C452   O731      0.64477      .   S
    C258   O732      0.64401      .   S
    C454   O732      0.64401      .   S
    C258   O733      0.63040      .   S
    C434   O733      0.63040      .   S
    C259   O734      0.63041      .   S
    C435   O734      0.63041      .   S
    C259   O735      0.64478      .   S
    C455   O735      0.64478      .   S
    C405   O736      0.64476      .   S
    C145   O736      0.64476      .   S
    C407   O737      0.64478      .   S
    C147   O737      0.64478      .   S
    C406   O738      0.64477      .   S
    C146   O738      0.64477      .   S
    C404   O739      0.64478      .   S
    C144   O739      0.64478      .   S
    C387   O740      0.60254  1_455   S
    C147   O740      0.60254      .   S
    C386   O741      0.60254  1_455   S
    C146   O741      0.60254      .   S
    C385   O742      0.63039      .   S
    C145   O742      0.63039      .   S
    C384   O743      0.63041      .   S
    C144   O743      0.63041      .   S
    C19    O744      0.54359      .   S
    C153   O744      0.54359      .   S
    C18    O745      0.54360      .   S
    C152   O745      0.54360      .   S
    C17    O746      0.54354  1_455   S
    C155   O746      0.54354      .   S
    C16    O747      0.54359  1_455   S
    C154   O747      0.54359      .   S
    C144   O748      0.75425      .   S
    C148   O748      0.75425      .   S
    C145   O749      0.75431      .   S
    C149   O749      0.75431      .   S
    C146   O750      0.75427      .   S
    C150   O750      0.75427      .   S
    C147   O751      0.75428      .   S
    C151   O751      0.75428      .   S
    C8     O752      1.14344      .   S
    C422   O752      1.14344      .   S
    C8     O753      1.16892      .   S
    C424   O753      1.16892      .   S
    C11    O754      1.14406      .   S
    C421   O754      1.14406  1_455   S
    C11    O755      1.16893      .   S
    C427   O755      1.16893      .   S
    C10    O756      1.14407      .   S
    C420   O756      1.14407  1_455   S
    C10    O757      1.16893      .   S
    C426   O757      1.16893      .   S
    C9     O758      1.14406      .   S
    C423   O758      1.14406      .   S
    C9     O759      1.16893      .   S
    C425   O759      1.16893      .   S
    C155   O760      0.70010      .   S
    C151   O760      0.70010      .   S
    C155   O761      0.69600      .   S
    C163   O761      0.69600      .   S
    C154   O762      0.70010      .   S
    C150   O762      0.70010      .   S
    C154   O763      0.69597      .   S
    C162   O763      0.69597      .   S
    C153   O764      0.70009      .   S
    C149   O764      0.70009      .   S
    C153   O765      0.69597      .   S
    C161   O765      0.69597      .   S
    C152   O766      0.70010      .   S
    C148   O766      0.70010      .   S
    C152   O767      0.69598      .   S
    C160   O767      0.69598      .   S
    C148   O768      0.70133      .   S
    C156   O768      0.70133      .   S
    C149   O769      0.70132      .   S
    C157   O769      0.70132      .   S
    C150   O770      0.70133      .   S
    C158   O770      0.70133      .   S
    C151   O771      0.70131      .   S
    C159   O771      0.70131      .   S
    C27    O772      0.54357      .   S
    C163   O772      0.54357      .   S
    C26    O773      0.54357      .   S
    C162   O773      0.54357      .   S
    C25    O774      0.54357      .   S
    C161   O774      0.54357      .   S
    C24    O775      0.54356      .   S
    C160   O775      0.54356      .   S
    C160   O776      0.69869      .   S
    C168   O776      0.69869      .   S
    C161   O777      0.69871      .   S
    C169   O777      0.69871      .   S
    C162   O778      0.69869      .   S
    C170   O778      0.69869      .   S
    C163   O779      0.69828      .   S
    C171   O779      0.69828      .   S
    C389   O780      0.73607      .   S
    C369   O780      0.73607      .   S
    C388   O781      0.73606      .   S
    C368   O781      0.73606      .   S
    C391   O782      0.73622      .   S
    C371   O782      0.73622      .   S
    C390   O783      0.73607      .   S
    C370   O783      0.73607      .   S
    C157   O784      0.54494      .   S
    C21    O784      0.54494      .   S
    C157   O785      0.69754      .   S
    C165   O785      0.69754      .   S
    C158   O786      0.54495      .   S
    C22    O786      0.54495      .   S
    C158   O787      0.69754      .   S
    C166   O787      0.69754      .   S
    C159   O788      0.54495      .   S
    C23    O788      0.54495      .   S
    C159   O789      0.69752      .   S
    C167   O789      0.69752      .   S
    C156   O790      0.54494      .   S
    C20    O790      0.54494      .   S
    C156   O791      0.69717      .   S
    C164   O791      0.69717      .   S
    C171   O792      0.69985      .   S
    C167   O792      0.69985      .   S
    C171   O793      0.89134      .   S
    C371   O793      0.89134      .   S
    C169   O794      0.69982      .   S
    C165   O794      0.69982      .   S
    C169   O795      0.89083      .   S
    C369   O795      0.89083      .   S
    C168   O796      0.69979      .   S
    C164   O796      0.69979      .   S
    C168   O797      0.89084      .   S
    C368   O797      0.89084      .   S
    C170   O798      0.69981      .   S
    C166   O798      0.69981      .   S
    C170   O799      0.89084      .   S
    C370   O799      0.89084      .   S
    C164   O800      0.54423      .   S
    C28    O800      0.54423      .   S
    C166   O801      0.54384      .   S
    C30    O801      0.54384      .   S
    C167   O802      0.54385      .   S
    C31    O802      0.54385      .   S
    C165   O803      0.54385      .   S
    C29    O803      0.54385      .   S
    C392   O804      0.72866      .   S
    C368   O804      0.72866      .   S
    C395   O805      0.72870      .   S
    C371   O805      0.72870      .   S
    C394   O806      0.72866      .   S
    C370   O806      0.72866      .   S
    C393   O807      0.72867      .   S
    C369   O807      0.72867      .   S
    C422   O808      0.63458      .   S
    C254   O808      0.63458      .   S
    C423   O809      0.63397      .   S
    C255   O809      0.63397      .   S
    C421   O810      0.63397      .   S
    C253   O810      0.63397      .   S
    C420   O811      0.63397      .   S
    C252   O811      0.63397      .   S
    C370   O812      0.88817      .   S
    C174   O812      0.88817      .   S
    C368   O813      0.88817      .   S
    C172   O813      0.88817      .   S
    C369   O814      0.88817      .   S
    C173   O814      0.88817      .   S
    C371   O815      0.88783      .   S
    C175   O815      0.88783      .   S
    C427   O816      0.63430      .   S
    C255   O816      0.63430      .   S
    C426   O817      0.63430      .   S
    C254   O817      0.63430      .   S
    C425   O818      0.63430      .   S
    C253   O818      0.63430      .   S
    C424   O819      0.63430      .   S
    C252   O819      0.63430      .   S
    C253   O820      0.75829      .   S
    C249   O820      0.75829      .   S
    C252   O821      0.75828      .   S
    C248   O821      0.75828      .   S
    C255   O822      0.75828      .   S
    C251   O822      0.75828      .   S
    C254   O823      0.75828      .   S
    C250   O823      0.75828      .   S
    C33    O824      0.54470      .   S
    C177   O824      0.54470      .   S
    C34    O825      0.54470      .   S
    C178   O825      0.54470      .   S
    C35    O826      0.54470      .   S
    C179   O826      0.54470      .   S
    C32    O827      0.54447      .   S
    C176   O827      0.54447      .   S
    C173   O828      0.69931      .   S
    C177   O828      0.69931      .   S
    C173   O829      0.70032      .   S
    C181   O829      0.70032      .   S
    C174   O830      0.69930      .   S
    C178   O830      0.69930      .   S
    C174   O831      0.70038      .   S
    C182   O831      0.70038      .   S
    C175   O832      0.69930      .   S
    C179   O832      0.69930      .   S
    C175   O833      0.70031      .   S
    C183   O833      0.70031      .   S
    C172   O834      0.69930      .   S
    C176   O834      0.69930      .   S
    C172   O835      0.70039      .   S
    C180   O835      0.70039      .   S
    C78    O836      0.54463      .   S
    C246   O836      0.54463      .   S
    C76    O837      0.54463      .   S
    C244   O837      0.54463      .   S
    C77    O838      0.54463      .   S
    C245   O838      0.54463      .   S
    C79    O839      0.54463      .   S
    C247   O839      0.54463      .   S
    C179   O840      0.69808      .   S
    C187   O840      0.69808      .   S
    C178   O841      0.69808      .   S
    C186   O841      0.69808      .   S
    C177   O842      0.69808      .   S
    C185   O842      0.69808      .   S
    C176   O843      0.69808      .   S
    C184   O843      0.69808      .   S
    C249   O844      0.70123      .   S
    C247   O844      0.70123  1_655   S
    C249   O845      0.70097      .   S
    C241   O845      0.70097      .   S
    C251   O846      0.70123      .   S
    C245   O846      0.70123      .   S
    C251   O847      0.70098      .   S
    C243   O847      0.70098      .   S
    C250   O848      0.70123      .   S
    C244   O848      0.70123      .   S
    C250   O849      0.70098      .   S
    C242   O849      0.70098      .   S
    C248   O850      0.70123      .   S
    C246   O850      0.70123  1_655   S
    C248   O851      0.70098      .   S
    C240   O851      0.70098      .   S
    C39    O852      0.54441      .   S
    C183   O852      0.54441      .   S
    C37    O853      0.54403      .   S
    C181   O853      0.54403      .   S
    C36    O854      0.54403      .   S
    C180   O854      0.54403      .   S
    C38    O855      0.54404      .   S
    C182   O855      0.54404      .   S
    C244   O856      0.69557      .   S
    C236   O856      0.69557      .   S
    C245   O857      0.69557      .   S
    C237   O857      0.69557      .   S
    C246   O858      0.69557      .   S
    C238   O858      0.69557      .   S
    C247   O859      0.69556      .   S
    C239   O859      0.69556      .   S
    C181   O860      0.69563      .   S
    C189   O860      0.69563      .   S
    C183   O861      0.69563      .   S
    C191   O861      0.69563      .   S
    C182   O862      0.69552      .   S
    C190   O862      0.69552      .   S
    C180   O863      0.69552      .   S
    C188   O863      0.69552      .   S
    C75    O864      0.54410      .   S
    C243   O864      0.54410      .   S
    C72    O865      0.54409      .   S
    C240   O865      0.54409      .   S
    C73    O866      0.54410      .   S
    C241   O866      0.54410      .   S
    C74    O867      0.54409      .   S
    C242   O867      0.54409      .   S
    C243   O868      0.69802      .   S
    C235   O868      0.69802      .   S
    C242   O869      0.69802      .   S
    C234   O869      0.69802      .   S
    C241   O870      0.69802      .   S
    C233   O870      0.69802      .   S
    C240   O871      0.69802      .   S
    C232   O871      0.69802      .   S
    C184   O872      0.54406      .   S
    C42    O872      0.54406      .   S
    C184   O873      0.70101      .   S
    C192   O873      0.70101      .   S
    C185   O874      0.54406      .   S
    C43    O874      0.54406      .   S
    C185   O875      0.70102      .   S
    C193   O875      0.70102      .   S
    C186   O876      0.54405      .   S
    C40    O876      0.54405  1_455   S
    C186   O877      0.70101      .   S
    C194   O877      0.70101      .   S
    C187   O878      0.54405      .   S
    C41    O878      0.54405  1_455   S
    C187   O879      0.70101      .   S
    C195   O879      0.70101      .   S
    C239   O880      0.54404      .   S
    C71    O880      0.54404      .   S
    C239   O881      0.69997  1_655   S
    C229   O881      0.69997      .   S
    C238   O882      0.54404      .   S
    C70    O882      0.54404      .   S
    C238   O883      0.69997  1_655   S
    C228   O883      0.69997      .   S
    C237   O884      0.54404      .   S
    C69    O884      0.54404      .   S
    C237   O885      0.69998      .   S
    C231   O885      0.69998      .   S
    C236   O886      0.54404      .   S
    C68    O886      0.54404      .   S
    C236   O887      0.69997      .   S
    C230   O887      0.69997      .   S
    C191   O888      0.70128      .   S
    C195   O888      0.70128      .   S
    C191   O889      0.54469      .   S
    C47    O889      0.54469      .   S
    C190   O890      0.70128      .   S
    C194   O890      0.70128      .   S
    C190   O891      0.54468      .   S
    C46    O891      0.54468      .   S
    C189   O892      0.70127      .   S
    C193   O892      0.70127      .   S
    C189   O893      0.54469      .   S
    C45    O893      0.54469      .   S
    C188   O894      0.70128      .   S
    C192   O894      0.70128      .   S
    C188   O895      0.54468      .   S
    C44    O895      0.54468      .   S
    C195   O896      0.75827      .   S
    C199   O896      0.75827      .   S
    C194   O897      0.75828      .   S
    C198   O897      0.75828      .   S
    C193   O898      0.75828      .   S
    C197   O898      0.75828      .   S
    C192   O899      0.75827      .   S
    C196   O899      0.75827      .   S
    C232   O900      0.69911      .   S
    C228   O900      0.69911      .   S
    C232   O901      0.54445      .   S
    C64    O901      0.54445      .   S
    C233   O902      0.69911      .   S
    C229   O902      0.69911      .   S
    C233   O903      0.54445      .   S
    C65    O903      0.54445      .   S
    C234   O904      0.69911      .   S
    C230   O904      0.69911      .   S
    C234   O905      0.54446      .   S
    C66    O905      0.54446      .   S
    C235   O906      0.69911      .   S
    C231   O906      0.69911      .   S
    C235   O907      0.54446      .   S
    C67    O907      0.54446      .   S
    C228   O908      0.88844      .   S
    C372   O908      0.88844      .   S
    C231   O909      0.88844      .   S
    C375   O909      0.88844      .   S
    C230   O910      0.88844      .   S
    C374   O910      0.88844      .   S
    C229   O911      0.88844      .   S
    C373   O911      0.88844      .   S
    C196   O912      0.63429      .   S
    C400   O912      0.63429      .   S
    C196   O913      0.63398      .   S
    C396   O913      0.63398      .   S
    C197   O914      0.63429      .   S
    C401   O914      0.63429      .   S
    C197   O915      0.63397      .   S
    C397   O915      0.63397      .   S
    C198   O916      0.63429      .   S
    C402   O916      0.63429      .   S
    C198   O917      0.63397      .   S
    C398   O917      0.63397      .   S
    C199   O918      0.63429      .   S
    C403   O918      0.63429      .   S
    C199   O919      0.63397      .   S
    C399   O919      0.63397      .   S
    C401   O920      1.16888      .   S
    C15    O920      1.16888      .   S
    C402   O921      1.16888  1_655   S
    C12    O921      1.16888      .   S
    C403   O922      1.16888  1_655   S
    C13    O922      1.16888      .   S
    C400   O923      1.16889      .   S
    C14    O923      1.16889      .   S
    C60    O924      0.54382      .   S
    C220   O924      0.54382      .   S
    C61    O925      0.54384      .   S
    C221   O925      0.54384      .   S
    C62    O926      0.54382      .   S
    C222   O926      0.54382      .   S
    C63    O927      0.54384      .   S
    C223   O927      0.54384      .   S
    C372   O928      0.72870  1_455   S
    C418   O928      0.72870      .   S
    C372   O929      0.89105      .   S
    C225   O929      0.89105  1_565   S
    C372   O930      0.73625      .   S
    C412   O930      0.73625      .   S
    C373   O931      0.72870  1_455   S
    C419   O931      0.72870      .   S
    C373   O932      0.89098      .   S
    C224   O932      0.89098      .   S
    C373   O933      0.73625      .   S
    C413   O933      0.73625      .   S
    C374   O934      0.72870      .   S
    C416   O934      0.72870      .   S
    C374   O935      0.89104      .   S
    C227   O935      0.89104  1_565   S
    C374   O936      0.73625      .   S
    C414   O936      0.73625      .   S
    C375   O937      0.72870      .   S
    C417   O937      0.72870      .   S
    C375   O938      0.89098      .   S
    C226   O938      0.89098      .   S
    C375   O939      0.73626      .   S
    C415   O939      0.73626      .   S
    C398   O940      1.14411      .   S
    C14    O940      1.14411      .   S
    C397   O941      1.14411      .   S
    C13    O941      1.14411      .   S
    C396   O942      1.14411      .   S
    C12    O942      1.14411      .   S
    C399   O943      1.14411      .   S
    C15    O943      1.14411      .   S
    C220   O944      0.69980      .   S
    C226   O944      0.69980      .   S
    C220   O945      0.69754      .   S
    C212   O945      0.69754      .   S
    C223   O946      0.69981  1_655   S
    C225   O946      0.69981      .   S
    C223   O947      0.69702      .   S
    C215   O947      0.69702  1_455   S
    C222   O948      0.69980  1_655   S
    C224   O948      0.69980      .   S
    C222   O949      0.69704      .   S
    C214   O949      0.69704  1_455   S
    C221   O950      0.69981      .   S
    C227   O950      0.69981      .   S
    C221   O951      0.69752      .   S
    C213   O951      0.69752      .   S
    C225   O952      0.69870      .   S
    C217   O952      0.69870      .   S
    C226   O953      0.69869      .   S
    C218   O953      0.69869      .   S
    C224   O954      0.69869      .   S
    C216   O954      0.69869      .   S
    C227   O955      0.69871      .   S
    C219   O955      0.69871      .   S
    C54    O956      0.54361      .   S
    C214   O956      0.54361  1_455   S
    C52    O957      0.54494      .   S
    C212   O957      0.54494      .   S
    C55    O958      0.54360      .   S
    C215   O958      0.54360  1_455   S
    C53    O959      0.54495      .   S
    C213   O959      0.54495      .   S
    C214   O960      0.70312      .   S
    C204   O960      0.70312      .   S
    C213   O961      0.70134      .   S
    C207   O961      0.70134      .   S
    C212   O962      0.70131      .   S
    C206   O962      0.70131      .   S
    C215   O963      0.70277      .   S
    C205   O963      0.70277      .   S
    C219   O964      0.54362      .   S
    C58    O964      0.54362  1_545   S
    C219   O965      0.69599      .   S
    C211   O965      0.69599      .   S
    C218   O966      0.54357      .   S
    C59    O966      0.54357      .   S
    C218   O967      0.69600      .   S
    C210   O967      0.69600      .   S
    C217   O968      0.54361      .   S
    C56    O968      0.54361  1_545   S
    C217   O969      0.69600      .   S
    C209   O969      0.69600      .   S
    C216   O970      0.54357      .   S
    C57    O970      0.54357      .   S
    C216   O971      0.69600      .   S
    C208   O971      0.69600      .   S
    C205   O972      0.70010      .   S
    C209   O972      0.70010      .   S
    C205   O973      0.75465      .   S
    C201   O973      0.75465      .   S
    C204   O974      0.70010      .   S
    C208   O974      0.70010      .   S
    C204   O975      0.75431      .   S
    C200   O975      0.75431      .   S
    C206   O976      0.70010      .   S
    C210   O976      0.70010      .   S
    C206   O977      0.75431      .   S
    C202   O977      0.75431      .   S
    C207   O978      0.70010      .   S
    C211   O978      0.70010      .   S
    C207   O979      0.75425      .   S
    C203   O979      0.75425      .   S
    C211   O980      0.54354      .   S
    C51    O980      0.54354      .   S
    C210   O981      0.54353      .   S
    C50    O981      0.54353      .   S
    C209   O982      0.54353      .   S
    C49    O982      0.54353      .   S
    C208   O983      0.54353      .   S
    C48    O983      0.54353      .   S
    C203   O984      0.63042      .   S
    C411   O984      0.63042      .   S
    C203   O985      0.64478      .   S
    C431   O985      0.64478      .   S
    C201   O986      0.63035      .   S
    C409   O986      0.63035      .   S
    C201   O987      0.64478      .   S
    C429   O987      0.64478      .   S
    C202   O988      0.63039      .   S
    C410   O988      0.63039      .   S
    C202   O989      0.64477      .   S
    C430   O989      0.64477      .   S
    C200   O990      0.63039      .   S
    C408   O990      0.63039      .   S
    C200   O991      0.64477      .   S
    C428   O991      0.64477      .   S
    C384   O992      1.18232      .   S
    C2     O992      1.18232      .   S
    C385   O993      1.18233      .   S
    C3     O993      1.18233      .   S
    C386   O994      1.20178      .   S
    C0     O994      1.20178      .   S
    C387   O995      1.20179      .   S
    C1     O995      1.20179      .   S
    C388   O996      1.24128      .   S
    C8     O996      1.24128      .   S
    C389   O997      1.24126      .   S
    C9     O997      1.24126      .   S
    C390   O998      1.24127      .   S
    C10    O998      1.24127      .   S
    C391   O999      1.24125      .   S
    C11    O999      1.24125      .   S
    C404   O1000     1.23721      .   S
    C0     O1000     1.23721      .   S
    C404   O1001     1.21400      .   S
    C9     O1001     1.21400      .   S
    C405   O1002     1.23721      .   S
    C1     O1002     1.23721      .   S
    C405   O1003     1.21407  1_565   S
    C8     O1003     1.21407      .   S
    C406   O1004     1.23721      .   S
    C2     O1004     1.23721      .   S
    C406   O1005     1.21400      .   S
    C11    O1005     1.21400      .   S
    C407   O1006     1.23721      .   S
    C3     O1006     1.23721      .   S
    C407   O1007     1.21407  1_565   S
    C10    O1007     1.21407      .   S
    C408   O1008     1.18255  1_556   S
    C4     O1008     1.18255      .   S
    C409   O1009     1.18280  1_556   S
    C5     O1009     1.18280      .   S
    C410   O1010     1.18255  1_556   S
    C6     O1010     1.18255      .   S
    C411   O1011     1.18247  1_556   S
    C7     O1011     1.18247      .   S
    C412   O1012     1.24122      .   S
    C12    O1012     1.24122      .   S
    C413   O1013     1.24122      .   S
    C13    O1013     1.24122      .   S
    C414   O1014     1.24122      .   S
    C14    O1014     1.24122      .   S
    C415   O1015     1.24122      .   S
    C15    O1015     1.24122      .   S
    C428   O1016     1.23738  1_456   S
    C6     O1016     1.23738      .   S
    C428   O1017     1.21401      .   S
    C12    O1017     1.21401      .   S
    C429   O1018     1.23738  1_456   S
    C7     O1018     1.23738      .   S
    C429   O1019     1.21399      .   S
    C13    O1019     1.21399      .   S
    C430   O1020     1.23739  1_556   S
    C4     O1020     1.23739      .   S
    C430   O1021     1.21401      .   S
    C14    O1021     1.21401      .   S
    C431   O1022     1.23739  1_556   S
    C5     O1022     1.23739      .   S
    C431   O1023     1.21399      .   S
    C15    O1023     1.21399      .   S
    C432   O1024     1.18232      .   S
    C10    O1024     1.18232      .   S
    C433   O1025     1.18230      .   S
    C11    O1025     1.18230      .   S
    C434   O1026     1.18233      .   S
    C8     O1026     1.18233      .   S
    C435   O1027     1.18232      .   S
    C9     O1027     1.18232      .   S
    C436   O1028     1.24126      .   S
    C0     O1028     1.24126      .   S
    C437   O1029     1.24128      .   S
    C1     O1029     1.24128      .   S
    C438   O1030     1.24127      .   S
    C2     O1030     1.24127      .   S
    C439   O1031     1.24138      .   S
    C3     O1031     1.24138      .   S
    C452   O1032     1.21408  1_545   S
    C1     O1032     1.21408      .   S
    C452   O1033     1.23722      .   S
    C8     O1033     1.23722      .   S
    C453   O1034     1.21401      .   S
    C0     O1034     1.21401      .   S
    C453   O1035     1.23722      .   S
    C9     O1035     1.23722      .   S
    C454   O1036     1.21387  1_545   S
    C3     O1036     1.21387      .   S
    C454   O1037     1.23941      .   S
    C10    O1037     1.23941      .   S
    C455   O1038     1.21401      .   S
    C2     O1038     1.21401      .   S
    C455   O1039     1.23722      .   S
    C11    O1039     1.23722      .   S
    C456   O1040     1.18248  1_554   S
    C12    O1040     1.18248      .   S
    C457   O1041     1.18247  1_554   S
    C13    O1041     1.18247      .   S
    C458   O1042     1.18247  1_554   S
    C14    O1042     1.18247      .   S
    C459   O1043     1.18247  1_554   S
    C15    O1043     1.18247      .   S
    C460   O1044     1.24120      .   S
    C4     O1044     1.24120      .   S
    C461   O1045     1.24120      .   S
    C5     O1045     1.24120      .   S
    C462   O1046     1.24120      .   S
    C6     O1046     1.24120      .   S
    C463   O1047     1.24120      .   S
    C7     O1047     1.24120      .   S
    C476   O1048     1.21399      .   S
    C4     O1048     1.21399      .   S
    C476   O1049     1.23733  1_554   S
    C14    O1049     1.23733      .   S
    C477   O1050     1.21401      .   S
    C5     O1050     1.21401      .   S
    C477   O1051     1.23732  1_554   S
    C15    O1051     1.23732      .   S
    C478   O1052     1.21399      .   S
    C6     O1052     1.21399      .   S
    C478   O1053     1.23732  1_654   S
    C12    O1053     1.23732      .   S
    C479   O1054     1.21400      .   S
    C7     O1054     1.21400      .   S
    C479   O1055     1.23732  1_654   S
    C13    O1055     1.23732      .   S
