# CIF file generated by openbabel 2.4.90, see http://openbabel.sf.net
data_I
_chemical_name_common ''
_cell_length_a 11.272
_cell_length_b 24.217
_cell_length_c 23.214
_cell_angle_alpha 98.079
_cell_angle_beta 90.007
_cell_angle_gamma 89.999
_space_group_name_H-M_alt 'P 1'
_space_group_name_Hall 'P 1'
loop_
    _symmetry_equiv_pos_as_xyz
    x,y,z
loop_
    _atom_site_label
    _atom_site_type_symbol
    _atom_site_fract_x
    _atom_site_fract_y
    _atom_site_fract_z
    _atom_site_occupancy
    Zr0     Zr   0.14597   0.44700   0.45459   1.000
    Zr1     Zr   0.14597   0.94699   0.45459   1.000
    Zr2     Zr   0.64597   0.44700   0.45459   1.000
    Zr3     Zr   0.64597   0.94699   0.45459   1.000
    Zr4     Zr   0.39598   0.30299   0.04540   1.000
    Zr5     Zr   0.39598   0.80299   0.04540   1.000
    Zr6     Zr   0.89598   0.30299   0.04540   1.000
    Zr7     Zr   0.89598   0.80299   0.04540   1.000
    Zr8     Zr   0.35402   0.05301   0.54538   1.000
    Zr9     Zr   0.35402   0.55300   0.54538   1.000
    Zr10    Zr   0.85402   0.05301   0.54538   1.000
    Zr11    Zr   0.85403   0.55300   0.54538   1.000
    Zr12    Zr   0.10401   0.19701   0.95458   1.000
    Zr13    Zr   0.10402   0.69701   0.95458   1.000
    Zr14    Zr   0.60401   0.19701   0.95458   1.000
    Zr15    Zr   0.60402   0.69701   0.95458   1.000
    Zr16    Zr   0.39630   0.41923   0.53206   1.000
    Zr17    Zr   0.39630   0.91923   0.53206   1.000
    Zr18    Zr   0.89630   0.41923   0.53206   1.000
    Zr19    Zr   0.89630   0.91923   0.53207   1.000
    Zr20    Zr   0.35722   0.19774   0.86343   1.000
    Zr21    Zr   0.35723   0.69773   0.86343   1.000
    Zr22    Zr   0.85723   0.19774   0.86343   1.000
    Zr23    Zr   0.85723   0.69773   0.86343   1.000
    Zr24    Zr   0.14627   0.33078   0.96791   1.000
    Zr25    Zr   0.14627   0.83078   0.96790   1.000
    Zr26    Zr   0.64628   0.33078   0.96791   1.000
    Zr27    Zr   0.64628   0.83078   0.96790   1.000
    Zr28    Zr   0.10727   0.05227   0.63653   1.000
    Zr29    Zr   0.10727   0.55227   0.63653   1.000
    Zr30    Zr   0.60727   0.05227   0.63653   1.000
    Zr31    Zr   0.60727   0.55227   0.63653   1.000
    Zr32    Zr   0.10369   0.08077   0.46791   1.000
    Zr33    Zr   0.10369   0.58077   0.46790   1.000
    Zr34    Zr   0.60369   0.08077   0.46791   1.000
    Zr35    Zr   0.60369   0.58077   0.46791   1.000
    Zr36    Zr   0.14277   0.30227   0.13650   1.000
    Zr37    Zr   0.14277   0.80226   0.13650   1.000
    Zr38    Zr   0.64277   0.30227   0.13655   1.000
    Zr39    Zr   0.64277   0.80226   0.13650   1.000
    Zr40    Zr   0.35372   0.16922   0.03207   1.000
    Zr41    Zr   0.35372   0.66922   0.03207   1.000
    Zr42    Zr   0.85372   0.16922   0.03207   1.000
    Zr43    Zr   0.85372   0.66922   0.03207   1.000
    Zr44    Zr   0.39272   0.44773   0.36344   1.000
    Zr45    Zr   0.39273   0.94773   0.36344   1.000
    Zr46    Zr   0.89273   0.44773   0.36344   1.000
    Zr47    Zr   0.89273   0.94773   0.36344   1.000
    Zr48    Zr   0.50509   0.42815   0.52474   1.000
    Zr49    Zr   0.50509   0.92815   0.52474   1.000
    Zr50    Zr   0.00000   0.42815   0.52474   1.000
    Zr51    Zr   0.00000   0.92815   0.52474   1.000
    Zr52    Zr   0.26557   0.19919   0.89527   1.000
    Zr53    Zr   0.26558   0.69919   0.89527   1.000
    Zr54    Zr   0.76558   0.19920   0.89527   1.000
    Zr55    Zr   0.76558   0.69919   0.89527   1.000
    Zr56    Zr   0.46398   0.19462   0.87998   1.000
    Zr57    Zr   0.46398   0.69462   0.87998   1.000
    Zr58    Zr   0.96398   0.19462   0.87998   1.000
    Zr59    Zr   0.96398   0.69462   0.87998   1.000
    Zr60    Zr   0.31252   0.45381   0.52468   1.000
    Zr61    Zr   0.31252   0.95381   0.52468   1.000
    Zr62    Zr   0.81252   0.45381   0.52468   1.000
    Zr63    Zr   0.81252   0.95381   0.52468   1.000
    Zr64    Zr   0.25506   0.32186   0.97523   1.000
    Zr65    Zr   0.25506   0.82186   0.97520   1.000
    Zr66    Zr   0.75506   0.32186   0.97523   1.000
    Zr67    Zr   0.75506   0.82186   0.97524   1.000
    Zr68    Zr   0.01560   0.05082   0.60469   1.000
    Zr69    Zr   0.01561   0.55082   0.60469   1.000
    Zr70    Zr   0.51560   0.05082   0.60460   1.000
    Zr71    Zr   0.51560   0.55082   0.60469   1.000
    Zr72    Zr   0.21401   0.05539   0.61998   1.000
    Zr73    Zr   0.21402   0.55539   0.61998   1.000
    Zr74    Zr   0.71401   0.05539   0.61998   1.000
    Zr75    Zr   0.71402   0.55539   0.61998   1.000
    Zr76    Zr   0.06250   0.29620   0.97529   1.000
    Zr77    Zr   0.06250   0.79619   0.97529   1.000
    Zr78    Zr   0.56250   0.29620   0.97529   1.000
    Zr79    Zr   0.56250   0.79619   0.97529   1.000
    Zr80    Zr   0.99490   0.07185   0.47523   1.000
    Zr81    Zr   0.99490   0.57185   0.47523   1.000
    Zr82    Zr   0.49491   0.07185   0.47523   1.000
    Zr83    Zr   0.49491   0.57185   0.47523   1.000
    Zr84    Zr   0.23442   0.30081   0.10470   1.000
    Zr85    Zr   0.23442   0.80081   0.10470   1.000
    Zr86    Zr   0.73442   0.30081   0.10470   1.000
    Zr87    Zr   0.73442   0.80081   0.10470   1.000
    Zr88    Zr   0.03601   0.30538   0.11999   1.000
    Zr89    Zr   0.03602   0.80538   0.11999   1.000
    Zr90    Zr   0.53602   0.30538   0.11999   1.000
    Zr91    Zr   0.53602   0.80538   0.11999   1.000
    Zr92    Zr   0.18747   0.04619   0.47529   1.000
    Zr93    Zr   0.18747   0.54619   0.47529   1.000
    Zr94    Zr   0.68747   0.04619   0.47500   1.000
    Zr95    Zr   0.68747   0.54619   0.47529   1.000
    Zr96    Zr   0.24493   0.17814   0.02474   1.000
    Zr97    Zr   0.24493   0.67814   0.02474   1.000
    Zr98    Zr   0.74493   0.17815   0.02474   1.000
    Zr99    Zr   0.74493   0.67814   0.02474   1.000
    Zr100   Zr   0.48439   0.44918   0.39529   1.000
    Zr101   Zr   0.48439   0.94918   0.39529   1.000
    Zr102   Zr   0.98439   0.44918   0.39529   1.000
    Zr103   Zr   0.98439   0.94918   0.39529   1.000
    Zr104   Zr   0.28598   0.44461   0.37999   1.000
    Zr105   Zr   0.28598   0.94461   0.37999   1.000
    Zr106   Zr   0.78598   0.44461   0.37999   1.000
    Zr107   Zr   0.78598   0.94461   0.37999   1.000
    Zr108   Zr   0.43749   0.20381   0.02468   1.000
    Zr109   Zr   0.43749   0.70380   0.02468   1.000
    Zr110   Zr   0.93749   0.20381   0.02468   1.000
    Zr111   Zr   0.93749   0.70380   0.02468   1.000
    O112    O    0.89561   0.68651   0.02837   1.000
    O113    O    0.89561   0.18652   0.02837   1.000
    O114    O    0.39561   0.68651   0.02837   1.000
    O115    O    0.39561   0.18652   0.02837   1.000
    O116    O    0.29933   0.17368   0.02840   1.000
    O117    O    0.29933   0.67368   0.02840   1.000
    O118    O    0.79933   0.17368   0.02840   1.000
    O119    O    0.79933   0.67368   0.02840   1.000
    O120    O    0.31520   0.30190   0.07505   1.000
    O121    O    0.46600   0.30419   0.08270   1.000
    O122    O    0.31520   0.80190   0.07505   1.000
    O123    O    0.46600   0.80419   0.08270   1.000
    O124    O    0.81520   0.30190   0.07505   1.000
    O125    O    0.96600   0.30419   0.08270   1.000
    O126    O    0.81520   0.80190   0.07505   1.000
    O127    O    0.96600   0.80419   0.08270   1.000
    O128    O    0.68860   0.80153   0.12060   1.000
    O129    O    0.18859   0.30154   0.12060   1.000
    O130    O    0.18860   0.80153   0.12060   1.000
    O131    O    0.68859   0.30154   0.12063   1.000
    O132    O    0.58940   0.80382   0.12824   1.000
    O133    O    0.58939   0.30383   0.12827   1.000
    O134    O    0.08939   0.80382   0.12824   1.000
    O135    O    0.08939   0.30382   0.12824   1.000
    O136    O    0.33935   0.94617   0.37172   1.000
    O137    O    0.43856   0.94845   0.37936   1.000
    O138    O    0.83936   0.94617   0.37172   1.000
    O139    O    0.93856   0.94845   0.37936   1.000
    O140    O    0.83935   0.44617   0.37172   1.000
    O141    O    0.93856   0.44846   0.37936   1.000
    O142    O    0.33935   0.44617   0.37172   1.000
    O143    O    0.43856   0.44846   0.37936   1.000
    O144    O    0.71598   0.44580   0.41729   1.000
    O145    O    0.21598   0.94580   0.41729   1.000
    O146    O    0.21598   0.44580   0.41729   1.000
    O147    O    0.71598   0.94580   0.41729   1.000
    O148    O    0.06518   0.44809   0.42494   1.000
    O149    O    0.06518   0.94809   0.42494   1.000
    O150    O    0.56518   0.44809   0.42494   1.000
    O151    O    0.56518   0.94809   0.42494   1.000
    O152    O    0.04930   0.57631   0.47157   1.000
    O153    O    0.14558   0.56348   0.47159   1.000
    O154    O    0.04930   0.07631   0.47157   1.000
    O155    O    0.14558   0.06348   0.47160   1.000
    O156    O    0.64558   0.06348   0.47145   1.000
    O157    O    0.54930   0.07631   0.47157   1.000
    O158    O    0.54930   0.57631   0.47157   1.000
    O159    O    0.64558   0.56348   0.47160   1.000
    O160    O    0.35441   0.93652   0.52837   1.000
    O161    O    0.85441   0.93652   0.52838   1.000
    O162    O    0.85441   0.43652   0.52837   1.000
    O163    O    0.35441   0.43652   0.52837   1.000
    O164    O    0.94815   0.92369   0.52841   1.000
    O165    O    0.94815   0.42369   0.52840   1.000
    O166    O    0.45070   0.92369   0.52840   1.000
    O167    O    0.45070   0.42369   0.52840   1.000
    O168    O    0.43481   0.05191   0.57499   1.000
    O169    O    0.28402   0.05420   0.58268   1.000
    O170    O    0.93482   0.55191   0.57503   1.000
    O171    O    0.78402   0.55420   0.58268   1.000
    O172    O    0.93481   0.05191   0.57503   1.000
    O173    O    0.78402   0.05420   0.58268   1.000
    O174    O    0.43482   0.55191   0.57503   1.000
    O175    O    0.28402   0.55420   0.58268   1.000
    O176    O    0.56144   0.05155   0.62057   1.000
    O177    O    0.56144   0.55154   0.62061   1.000
    O178    O    0.06144   0.55154   0.62061   1.000
    O179    O    0.06144   0.05155   0.62061   1.000
    O180    O    0.66064   0.55383   0.62826   1.000
    O181    O    0.66064   0.05383   0.62826   1.000
    O182    O    0.16064   0.55383   0.62826   1.000
    O183    O    0.16064   0.05383   0.62826   1.000
    O184    O    0.41060   0.19618   0.87171   1.000
    O185    O    0.31140   0.19847   0.87935   1.000
    O186    O    0.41060   0.69618   0.87171   1.000
    O187    O    0.31140   0.69846   0.87935   1.000
    O188    O    0.91060   0.19618   0.87171   1.000
    O189    O    0.81140   0.19847   0.87935   1.000
    O190    O    0.91060   0.69618   0.87171   1.000
    O191    O    0.81140   0.69846   0.87935   1.000
    O192    O    0.53400   0.69581   0.91728   1.000
    O193    O    0.03400   0.19582   0.91728   1.000
    O194    O    0.03400   0.69581   0.91728   1.000
    O195    O    0.53399   0.19582   0.91728   1.000
    O196    O    0.68479   0.19810   0.92492   1.000
    O197    O    0.18480   0.69810   0.92492   1.000
    O198    O    0.18479   0.19810   0.92492   1.000
    O199    O    0.68480   0.69810   0.92492   1.000
    O200    O    0.70067   0.82632   0.97157   1.000
    O201    O    0.60439   0.81349   0.97159   1.000
    O202    O    0.20067   0.82632   0.97155   1.000
    O203    O    0.10439   0.81349   0.97159   1.000
    O204    O    0.70067   0.32632   0.97157   1.000
    O205    O    0.60439   0.31349   0.97160   1.000
    O206    O    0.20067   0.32632   0.97157   1.000
    O207    O    0.10439   0.31349   0.97160   1.000
    O208    O    0.57553   0.43758   0.48966   1.000
    O209    O    0.57553   0.93757   0.48966   1.000
    O210    O    0.07299   0.43757   0.48966   1.000
    O211    O    0.07299   0.93757   0.48966   1.000
    O212    O    0.22925   0.45041   0.48964   1.000
    O213    O    0.33327   0.50341   0.53503   1.000
    O214    O    0.22925   0.95040   0.48964   1.000
    O215    O    0.33327   0.00341   0.53503   1.000
    O216    O    0.72925   0.45041   0.48964   1.000
    O217    O    0.83327   0.50341   0.53503   1.000
    O218    O    0.72925   0.95040   0.48964   1.000
    O219    O    0.83327   0.00341   0.53503   1.000
    O220    O    0.32552   0.31243   0.01032   1.000
    O221    O    0.32552   0.81242   0.01030   1.000
    O222    O    0.82552   0.31243   0.01032   1.000
    O223    O    0.82552   0.81242   0.01032   1.000
    O224    O    0.97924   0.29960   0.01035   1.000
    O225    O    0.08326   0.24661   0.96493   1.000
    O226    O    0.97924   0.79959   0.01035   1.000
    O227    O    0.08326   0.74660   0.96493   1.000
    O228    O    0.47924   0.29960   0.01035   1.000
    O229    O    0.58326   0.24661   0.96493   1.000
    O230    O    0.47924   0.79959   0.01035   1.000
    O231    O    0.58326   0.74660   0.96493   1.000
    O232    O    0.92446   0.06243   0.51031   1.000
    O233    O    0.92446   0.56243   0.51031   1.000
    O234    O    0.42446   0.06243   0.51031   1.000
    O235    O    0.42447   0.56243   0.51031   1.000
    O236    O    0.16672   0.99659   0.46494   1.000
    O237    O    0.27075   0.04960   0.51034   1.000
    O238    O    0.16672   0.49659   0.46494   1.000
    O239    O    0.27075   0.54959   0.51034   1.000
    O240    O    0.66672   0.99659   0.46480   1.000
    O241    O    0.77075   0.04960   0.51019   1.000
    O242    O    0.66672   0.49659   0.46494   1.000
    O243    O    0.77075   0.54960   0.51034   1.000
    O244    O    0.17447   0.18758   0.98966   1.000
    O245    O    0.17447   0.68758   0.98966   1.000
    O246    O    0.67447   0.18758   0.98966   1.000
    O247    O    0.67447   0.68758   0.98966   1.000
    O248    O    0.41674   0.25340   0.03504   1.000
    O249    O    0.52075   0.20041   0.98963   1.000
    O250    O    0.41674   0.75340   0.03504   1.000
    O251    O    0.52076   0.70041   0.98963   1.000
    O252    O    0.91674   0.25340   0.03504   1.000
    O253    O    0.02075   0.20041   0.98963   1.000
    O254    O    0.91674   0.75340   0.03504   1.000
    O255    O    0.02076   0.70041   0.98963   1.000
    N256    N    0.56235   0.50336   0.85306   1.000
    O257    O    0.59556   0.43063   0.90542   1.000
    O258    O    0.57960   0.52743   0.76087   1.000
    O259    O    0.57905   0.57454   0.89706   1.000
    N260    N    0.18767   0.25335   0.35306   1.000
    O261    O    0.15443   0.18062   0.40542   1.000
    O262    O    0.17097   0.32453   0.39707   1.000
    O263    O    0.17044   0.27742   0.26086   1.000
    N264    N    0.31233   0.24665   0.64689   1.000
    O265    O    0.32903   0.17548   0.60289   1.000
    O266    O    0.34556   0.31938   0.59454   1.000
    O267    O    0.32955   0.22258   0.73909   1.000
    N268    N    0.81233   0.74665   0.64689   1.000
    O269    O    0.82903   0.67547   0.60289   1.000
    O270    O    0.82956   0.72258   0.73909   1.000
    O271    O    0.84557   0.81938   0.59454   1.000
    N272    N    0.43765   0.49664   0.14686   1.000
    O273    O    0.42095   0.42546   0.10288   1.000
    O274    O    0.40444   0.56937   0.09452   1.000
    O275    O    0.42040   0.47257   0.23906   1.000
    N276    N    0.06234   0.00336   0.85306   1.000
    O277    O    0.07959   0.02743   0.76087   1.000
    O278    O    0.09555   0.93063   0.90540   1.000
    O279    O    0.07904   0.07454   0.89706   1.000
    N280    N    0.18767   0.75335   0.35307   1.000
    O281    O    0.15443   0.68062   0.40542   1.000
    O282    O    0.17045   0.77742   0.26087   1.000
    O283    O    0.17097   0.82452   0.39708   1.000
    N284    N    0.93765   0.49664   0.14686   1.000
    O285    O    0.90444   0.56937   0.09452   1.000
    O286    O    0.92040   0.47257   0.23907   1.000
    O287    O    0.92095   0.42546   0.10289   1.000
    N288    N    0.93765   0.99664   0.14688   1.000
    O289    O    0.92095   0.92546   0.10290   1.000
    O290    O    0.90444   0.06937   0.09453   1.000
    O291    O    0.92041   0.97257   0.23908   1.000
    N292    N    0.06234   0.50336   0.85306   1.000
    O293    O    0.09555   0.43063   0.90542   1.000
    O294    O    0.07959   0.52743   0.76087   1.000
    O295    O    0.07904   0.57454   0.89706   1.000
    N296    N    0.68767   0.75335   0.35306   1.000
    O297    O    0.65444   0.68062   0.40542   1.000
    O298    O    0.67045   0.77742   0.26086   1.000
    O299    O    0.67097   0.82452   0.39705   1.000
    N300    N    0.56235   0.00336   0.85306   1.000
    O301    O    0.57905   0.07454   0.89706   1.000
    O302    O    0.59556   0.93063   0.90542   1.000
    O303    O    0.57959   0.02743   0.76087   1.000
    N304    N    0.31233   0.74665   0.64689   1.000
    O305    O    0.34557   0.81938   0.59454   1.000
    O306    O    0.32903   0.67547   0.60289   1.000
    O307    O    0.32956   0.72258   0.73909   1.000
    N308    N    0.43765   0.99664   0.14688   1.000
    O309    O    0.42041   0.97257   0.23908   1.000
    O310    O    0.42095   0.92546   0.10290   1.000
    O311    O    0.40444   0.06937   0.09453   1.000
    N312    N    0.81233   0.24665   0.64689   1.000
    O313    O    0.82903   0.17548   0.60289   1.000
    O314    O    0.84556   0.31938   0.59454   1.000
    O315    O    0.82955   0.22258   0.73909   1.000
    N316    N    0.68767   0.25335   0.35307   1.000
    O317    O    0.67044   0.27742   0.26088   1.000
    O318    O    0.65443   0.18062   0.40543   1.000
    O319    O    0.67097   0.32453   0.39708   1.000
loop_
    _geom_bond_atom_site_label_1
    _geom_bond_atom_site_label_2
    _geom_bond_distance
    _geom_bond_site_symmetry_2
    _ccdc_geom_bond_type
    Zr111  O112      0.64478      .   S
    Zr43   O112      0.64478      .   S
    Zr110  O113      0.64478      .   S
    Zr42   O113      0.64478      .   S
    Zr109  O114      0.64479      .   S
    Zr41   O114      0.64479      .   S
    Zr108  O115      0.64477      .   S
    Zr40   O115      0.64477      .   S
    Zr96   O116      0.63041      .   S
    Zr40   O116      0.63041      .   S
    Zr97   O117      0.63041      .   S
    Zr41   O117      0.63041      .   S
    Zr98   O118      0.63040      .   S
    Zr42   O118      0.63040      .   S
    Zr99   O119      0.63041      .   S
    Zr43   O119      0.63041      .   S
    Zr4    O120      1.14406      .   S
    Zr84   O120      1.14406      .   S
    Zr4    O121      1.16879      .   S
    Zr90   O121      1.16879      .   S
    Zr5    O122      1.14406      .   S
    Zr85   O122      1.14406      .   S
    Zr5    O123      1.16879      .   S
    Zr91   O123      1.16879      .   S
    Zr6    O124      1.14406      .   S
    Zr86   O124      1.14406      .   S
    Zr6    O125      1.16878      .   S
    Zr88   O125      1.16878  1_455   S
    Zr7    O126      1.14406      .   S
    Zr87   O126      1.14406      .   S
    Zr7    O127      1.16879      .   S
    Zr89   O127      1.16879  1_455   S
    Zr87   O128      0.63369      .   S
    Zr39   O128      0.63369      .   S
    Zr84   O129      0.63369      .   S
    Zr36   O129      0.63369      .   S
    Zr85   O130      0.63369      .   S
    Zr37   O130      0.63369      .   S
    Zr86   O131      0.63403      .   S
    Zr38   O131      0.63403      .   S
    Zr91   O132      0.63416      .   S
    Zr39   O132      0.63416      .   S
    Zr90   O133      0.63433      .   S
    Zr38   O133      0.63433      .   S
    Zr89   O134      0.63416      .   S
    Zr37   O134      0.63416      .   S
    Zr88   O135      0.63416      .   S
    Zr36   O135      0.63416      .   S
    Zr45   O136      0.63430      .   S
    Zr105  O136      0.63430      .   S
    Zr45   O137      0.63404      .   S
    Zr101  O137      0.63404      .   S
    Zr47   O138      0.63430      .   S
    Zr107  O138      0.63430      .   S
    Zr47   O139      0.63404      .   S
    Zr103  O139      0.63404      .   S
    Zr46   O140      0.63430      .   S
    Zr106  O140      0.63430      .   S
    Zr46   O141      0.63404      .   S
    Zr102  O141      0.63404      .   S
    Zr44   O142      0.63429      .   S
    Zr104  O142      0.63429      .   S
    Zr44   O143      0.63404      .   S
    Zr100  O143      0.63404      .   S
    Zr106  O144      1.16892      .   S
    Zr2    O144      1.16892      .   S
    Zr105  O145      1.16892      .   S
    Zr1    O145      1.16892      .   S
    Zr104  O146      1.16892      .   S
    Zr0    O146      1.16892      .   S
    Zr107  O147      1.16892      .   S
    Zr3    O147      1.16892      .   S
    Zr102  O148      1.14400  1_655   S
    Zr0    O148      1.14400      .   S
    Zr103  O149      1.14400  1_655   S
    Zr1    O149      1.14400      .   S
    Zr100  O150      1.14401      .   S
    Zr2    O150      1.14401      .   S
    Zr101  O151      1.14401      .   S
    Zr3    O151      1.14401      .   S
    Zr33   O152      0.63044      .   S
    Zr81   O152      0.63044  1_655   S
    Zr33   O153      0.64481      .   S
    Zr93   O153      0.64481      .   S
    Zr32   O154      0.63040      .   S
    Zr80   O154      0.63040  1_655   S
    Zr32   O155      0.64477      .   S
    Zr92   O155      0.64477      .   S
    Zr34   O156      0.64401      .   S
    Zr94   O156      0.64401      .   S
    Zr34   O157      0.63040      .   S
    Zr82   O157      0.63040      .   S
    Zr35   O158      0.63041      .   S
    Zr83   O158      0.63041      .   S
    Zr35   O159      0.64478      .   S
    Zr95   O159      0.64478      .   S
    Zr61   O160      0.64476      .   S
    Zr17   O160      0.64476      .   S
    Zr63   O161      0.64478      .   S
    Zr19   O161      0.64478      .   S
    Zr62   O162      0.64477      .   S
    Zr18   O162      0.64477      .   S
    Zr60   O163      0.64478      .   S
    Zr16   O163      0.64478      .   S
    Zr51   O164      0.60254  1_455   S
    Zr19   O164      0.60254      .   S
    Zr50   O165      0.60254  1_455   S
    Zr18   O165      0.60254      .   S
    Zr49   O166      0.63039      .   S
    Zr17   O166      0.63039      .   S
    Zr48   O167      0.63041      .   S
    Zr16   O167      0.63041      .   S
    Zr8    O168      1.14344      .   S
    Zr70   O168      1.14344      .   S
    Zr8    O169      1.16892      .   S
    Zr72   O169      1.16892      .   S
    Zr11   O170      1.14406      .   S
    Zr69   O170      1.14406  1_455   S
    Zr11   O171      1.16893      .   S
    Zr75   O171      1.16893      .   S
    Zr10   O172      1.14407      .   S
    Zr68   O172      1.14407  1_455   S
    Zr10   O173      1.16893      .   S
    Zr74   O173      1.16893      .   S
    Zr9    O174      1.14406      .   S
    Zr71   O174      1.14406      .   S
    Zr9    O175      1.16893      .   S
    Zr73   O175      1.16893      .   S
    Zr70   O176      0.63458      .   S
    Zr30   O176      0.63458      .   S
    Zr71   O177      0.63397      .   S
    Zr31   O177      0.63397      .   S
    Zr69   O178      0.63397      .   S
    Zr29   O178      0.63397      .   S
    Zr68   O179      0.63397      .   S
    Zr28   O179      0.63397      .   S
    Zr75   O180      0.63430      .   S
    Zr31   O180      0.63430      .   S
    Zr74   O181      0.63430      .   S
    Zr30   O181      0.63430      .   S
    Zr73   O182      0.63430      .   S
    Zr29   O182      0.63430      .   S
    Zr72   O183      0.63430      .   S
    Zr28   O183      0.63430      .   S
    Zr20   O184      0.63429      .   S
    Zr56   O184      0.63429      .   S
    Zr20   O185      0.63398      .   S
    Zr52   O185      0.63398      .   S
    Zr21   O186      0.63429      .   S
    Zr57   O186      0.63429      .   S
    Zr21   O187      0.63397      .   S
    Zr53   O187      0.63397      .   S
    Zr22   O188      0.63429      .   S
    Zr58   O188      0.63429      .   S
    Zr22   O189      0.63397      .   S
    Zr54   O189      0.63397      .   S
    Zr23   O190      0.63429      .   S
    Zr59   O190      0.63429      .   S
    Zr23   O191      0.63397      .   S
    Zr55   O191      0.63397      .   S
    Zr57   O192      1.16888      .   S
    Zr15   O192      1.16888      .   S
    Zr58   O193      1.16888  1_655   S
    Zr12   O193      1.16888      .   S
    Zr59   O194      1.16888  1_655   S
    Zr13   O194      1.16888      .   S
    Zr56   O195      1.16889      .   S
    Zr14   O195      1.16889      .   S
    Zr54   O196      1.14411      .   S
    Zr14   O196      1.14411      .   S
    Zr53   O197      1.14411      .   S
    Zr13   O197      1.14411      .   S
    Zr52   O198      1.14411      .   S
    Zr12   O198      1.14411      .   S
    Zr55   O199      1.14411      .   S
    Zr15   O199      1.14411      .   S
    Zr27   O200      0.63042      .   S
    Zr67   O200      0.63042      .   S
    Zr27   O201      0.64478      .   S
    Zr79   O201      0.64478      .   S
    Zr25   O202      0.63035      .   S
    Zr65   O202      0.63035      .   S
    Zr25   O203      0.64478      .   S
    Zr77   O203      0.64478      .   S
    Zr26   O204      0.63039      .   S
    Zr66   O204      0.63039      .   S
    Zr26   O205      0.64477      .   S
    Zr78   O205      0.64477      .   S
    Zr24   O206      0.63039      .   S
    Zr64   O206      0.63039      .   S
    Zr24   O207      0.64477      .   S
    Zr76   O207      0.64477      .   S
    Zr48   O208      1.18232      .   S
    Zr2    O208      1.18232      .   S
    Zr49   O209      1.18233      .   S
    Zr3    O209      1.18233      .   S
    Zr50   O210      1.20178      .   S
    Zr0    O210      1.20178      .   S
    Zr51   O211      1.20179      .   S
    Zr1    O211      1.20179      .   S
    Zr60   O212      1.23721      .   S
    Zr0    O212      1.23721      .   S
    Zr60   O213      1.21400      .   S
    Zr9    O213      1.21400      .   S
    Zr61   O214      1.23721      .   S
    Zr1    O214      1.23721      .   S
    Zr61   O215      1.21407  1_565   S
    Zr8    O215      1.21407      .   S
    Zr62   O216      1.23721      .   S
    Zr2    O216      1.23721      .   S
    Zr62   O217      1.21400      .   S
    Zr11   O217      1.21400      .   S
    Zr63   O218      1.23721      .   S
    Zr3    O218      1.23721      .   S
    Zr63   O219      1.21407  1_565   S
    Zr10   O219      1.21407      .   S
    Zr64   O220      1.18255  1_556   S
    Zr4    O220      1.18255      .   S
    Zr65   O221      1.18280  1_556   S
    Zr5    O221      1.18280      .   S
    Zr66   O222      1.18255  1_556   S
    Zr6    O222      1.18255      .   S
    Zr67   O223      1.18247  1_556   S
    Zr7    O223      1.18247      .   S
    Zr76   O224      1.23738  1_456   S
    Zr6    O224      1.23738      .   S
    Zr76   O225      1.21401      .   S
    Zr12   O225      1.21401      .   S
    Zr77   O226      1.23738  1_456   S
    Zr7    O226      1.23738      .   S
    Zr77   O227      1.21399      .   S
    Zr13   O227      1.21399      .   S
    Zr78   O228      1.23739  1_556   S
    Zr4    O228      1.23739      .   S
    Zr78   O229      1.21401      .   S
    Zr14   O229      1.21401      .   S
    Zr79   O230      1.23739  1_556   S
    Zr5    O230      1.23739      .   S
    Zr79   O231      1.21399      .   S
    Zr15   O231      1.21399      .   S
    Zr80   O232      1.18232      .   S
    Zr10   O232      1.18232      .   S
    Zr81   O233      1.18230      .   S
    Zr11   O233      1.18230      .   S
    Zr82   O234      1.18233      .   S
    Zr8    O234      1.18233      .   S
    Zr83   O235      1.18232      .   S
    Zr9    O235      1.18232      .   S
    Zr92   O236      1.21408  1_545   S
    Zr1    O236      1.21408      .   S
    Zr92   O237      1.23722      .   S
    Zr8    O237      1.23722      .   S
    Zr93   O238      1.21401      .   S
    Zr0    O238      1.21401      .   S
    Zr93   O239      1.23722      .   S
    Zr9    O239      1.23722      .   S
    Zr94   O240      1.21387  1_545   S
    Zr3    O240      1.21387      .   S
    Zr94   O241      1.23941      .   S
    Zr10   O241      1.23941      .   S
    Zr95   O242      1.21401      .   S
    Zr2    O242      1.21401      .   S
    Zr95   O243      1.23722      .   S
    Zr11   O243      1.23722      .   S
    Zr96   O244      1.18248  1_554   S
    Zr12   O244      1.18248      .   S
    Zr97   O245      1.18247  1_554   S
    Zr13   O245      1.18247      .   S
    Zr98   O246      1.18247  1_554   S
    Zr14   O246      1.18247      .   S
    Zr99   O247      1.18247  1_554   S
    Zr15   O247      1.18247      .   S
    Zr108  O248      1.21399      .   S
    Zr4    O248      1.21399      .   S
    Zr108  O249      1.23733  1_554   S
    Zr14   O249      1.23733      .   S
    Zr109  O250      1.21401      .   S
    Zr5    O250      1.21401      .   S
    Zr109  O251      1.23732  1_554   S
    Zr15   O251      1.23732      .   S
    Zr110  O252      1.21399      .   S
    Zr6    O252      1.21399      .   S
    Zr110  O253      1.23732  1_654   S
    Zr12   O253      1.23732      .   S
    Zr111  O254      1.21400      .   S
    Zr7    O254      1.21400      .   S
    Zr111  O255      1.23732  1_654   S
    Zr13   O255      1.23732      .   S
    N256   O257      2.30683      .   S
    Zr26   O257      3.04366      .   S
    N256   O258      2.30396      .   S
    Zr31   O258      3.04607      .   S
    N256   O259      1.88547      .   S
    Zr15   O259      3.08954      .   S
    N260   O261      2.30692      .   S
    Zr32   O261      3.04374      .   S
    N260   O262      1.88550      .   S
    Zr0    O262      3.08956      .   S
    N260   O263      2.30410      .   S
    Zr36   O263      3.04664      .   S
    N264   O265      1.88543      .   S
    Zr8    O265      3.08954      .   S
    N264   O266      2.30680      .   S
    Zr16   O266      3.04362      .   S
    N264   O267      2.30403      .   S
    Zr20   O267      3.04612      .   S
    N268   O269      1.88539      .   S
    Zr11   O269      3.08949      .   S
    N268   O270      2.30409      .   S
    Zr23   O270      3.04618      .   S
    N268   O271      2.30673      .   S
    Zr19   O271      3.04356      .   S
    N272   O273      1.88518      .   S
    Zr4    O273      3.08929      .   S
    N272   O274      2.30642      .   S
    Zr41   O274      3.04318      .   S
    N272   O275      2.30431      .   S
    Zr44   O275      3.04701      .   S
    N276   O277      2.30395      .   S
    Zr28   O277      3.04606      .   S
    N276   O278      2.30662  1_545   S
    Zr25   O278      3.04391      .   S
    N276   O279      1.88550      .   S
    Zr12   O279      3.08957      .   S
    N280   O281      2.30681      .   S
    Zr33   O281      3.04359      .   S
    N280   O282      2.30415      .   S
    Zr37   O282      3.04669      .   S
    N280   O283      1.88549      .   S
    Zr1    O283      3.08956      .   S
    N284   O285      2.30647      .   S
    Zr43   O285      3.04323      .   S
    N284   O286      2.30422      .   S
    Zr46   O286      3.04692      .   S
    N284   O287      1.88521      .   S
    Zr6    O287      3.08931      .   S
    N288   O289      1.88530      .   S
    Zr7    O289      3.08938      .   S
    N288   O290      2.30665  1_565   S
    Zr42   O290      3.04341      .   S
    N288   O291      2.30405      .   S
    Zr47   O291      3.04673      .   S
    N292   O293      2.30685      .   S
    Zr24   O293      3.04368      .   S
    N292   O294      2.30396      .   S
    Zr29   O294      3.04607      .   S
    N292   O295      1.88548      .   S
    Zr13   O295      3.08956      .   S
    N296   O297      2.30687      .   S
    Zr35   O297      3.04373      .   S
    N296   O298      2.30411      .   S
    Zr39   O298      3.04666      .   S
    N296   O299      1.88532      .   S
    Zr3    O299      3.08972      .   S
    N300   O301      1.88547      .   S
    Zr14   O301      3.08955      .   S
    N300   O302      2.30688  1_545   S
    Zr27   O302      3.04361      .   S
    N300   O303      2.30398      .   S
    Zr30   O303      3.04608      .   S
    N304   O305      2.30681      .   S
    Zr17   O305      3.04368      .   S
    N304   O306      1.88544      .   S
    Zr9    O306      3.08953      .   S
    N304   O307      2.30401      .   S
    Zr21   O307      3.04612      .   S
    N308   O309      2.30405      .   S
    Zr45   O309      3.04672      .   S
    N308   O310      1.88529      .   S
    Zr5    O310      3.08938      .   S
    N308   O311      2.30665  1_565   S
    Zr40   O311      3.04341      .   S
    N312   O313      1.88544      .   S
    Zr10   O313      3.08954      .   S
    N312   O314      2.30681      .   S
    Zr18   O314      3.04365      .   S
    N312   O315      2.30400      .   S
    Zr22   O315      3.04611      .   S
    N316   O317      2.30384      .   S
    Zr38   O317      3.04584      .   S
    N316   O318      2.30689      .   S
    Zr34   O318      3.04375      .   S
    N316   O319      1.88550      .   S
    Zr2    O319      3.08955      .   S
