# CIF file generated by openbabel 2.4.90, see http://openbabel.sf.net
data_I
_chemical_name_common 'VESTA_phase_1'
_cell_length_a 15.026
_cell_length_b 14.001
_cell_length_c 14.741
_cell_angle_alpha 62.372
_cell_angle_beta 59.451
_cell_angle_gamma 57.636
_space_group_name_H-M_alt 'P 1'
_space_group_name_Hall 'P 1'
loop_
    _symmetry_equiv_pos_as_xyz
    x,y,z
loop_
    _atom_site_label
    _atom_site_type_symbol
    _atom_site_fract_x
    _atom_site_fract_y
    _atom_site_fract_z
    _atom_site_occupancy
    Cd0     Cd   0.95020   0.02653   0.63534   1.000
    Cd1     Cd   0.61243   0.47387   0.86438   1.000
    Cd2     Cd   0.04985   0.97351   0.36450   1.000
    Cd3     Cd   0.38761   0.52616   0.13548   1.000
    Cd4     Cd   0.70529   0.25026   0.74979   1.000
    Cd5     Cd   0.29475   0.74978   0.25006   1.000
    H6      H    0.65685   0.27729   0.27090   1.000
    H7      H    0.79904   0.14854   0.36287   1.000
    H8      H    0.80972   0.12953   0.98600   1.000
    H9      H    0.69792   0.43043   0.48607   1.000
    H10     H    0.55916   0.56024   0.38858   1.000
    H11     H    0.15523   0.91286   0.84659   1.000
    H12     H    0.20543   0.22300   0.22737   1.000
    H13     H    0.31044   0.35218   0.13504   1.000
    H14     H    0.92592   0.36968   0.51401   1.000
    H15     H    0.61433   0.06961   0.00000   1.000
    H16     H    0.50816   0.93942   0.11189   1.000
    H17     H    0.91432   0.58848   0.65260   1.000
    H18     H    0.34320   0.72274   0.72890   1.000
    H19     H    0.20102   0.85150   0.63697   1.000
    H20     H    0.19030   0.87047   0.01369   1.000
    H21     H    0.30214   0.56962   0.51377   1.000
    H22     H    0.44088   0.43980   0.61120   1.000
    H23     H    0.84478   0.08714   0.15329   1.000
    H24     H    0.79462   0.77704   0.77247   1.000
    H25     H    0.68961   0.64785   0.86481   1.000
    H26     H    0.07413   0.63033   0.48586   1.000
    H27     H    0.38572   0.93043   0.98572   1.000
    H28     H    0.49189   0.06062   0.88793   1.000
    H29     H    0.08573   0.41154   0.34726   1.000
    C30     C    0.83456   0.20220   0.49304   1.000
    C31     C    0.75685   0.28144   0.43092   1.000
    C32     C    0.66767   0.31003   0.31720   1.000
    C33     C    0.95794   0.04669   0.80952   1.000
    C34     C    0.98061   0.02399   0.90679   1.000
    C35     C    0.74657   0.23837   0.36898   1.000
    C36     C    0.51083   0.50079   0.27250   1.000
    C37     C    0.59934   0.42582   0.32505   1.000
    C38     C    0.89262   0.07323   0.99310   1.000
    C39     C    0.68956   0.39789   0.43769   1.000
    C40     C    0.61213   0.46991   0.38401   1.000
    C41     C    0.08801   0.95062   0.91414   1.000
    C42     C    0.52968   0.29828   0.00619   1.000
    C43     C    0.46917   0.21895   0.06800   1.000
    C44     C    0.29516   0.19021   0.18148   1.000
    C45     C    0.81417   0.45380   0.69008   1.000
    C46     C    0.91140   0.47631   0.59294   1.000
    C47     C    0.35396   0.26211   0.12950   1.000
    C48     C    0.28463   0.99878   0.22738   1.000
    C49     C    0.35051   0.07410   0.17445   1.000
    C50     C    0.95930   0.42632   0.50693   1.000
    C51     C    0.52513   0.10223   0.06210   1.000
    C52     C    0.46621   0.03000   0.11590   1.000
    C53     C    0.95262   0.55010   0.58536   1.000
    C54     C    0.16551   0.79784   0.50600   1.000
    C55     C    0.24320   0.71860   0.56892   1.000
    C56     C    0.33238   0.69000   0.68262   1.000
    C57     C    0.04209   0.95332   0.19035   1.000
    C58     C    0.01941   0.97601   0.09309   1.000
    C59     C    0.25349   0.76167   0.63087   1.000
    C60     C    0.48920   0.49924   0.72737   1.000
    C61     C    0.40071   0.57421   0.67481   1.000
    C62     C    0.10739   0.92677   0.00674   1.000
    C63     C    0.31050   0.60215   0.56216   1.000
    C64     C    0.38792   0.53012   0.61584   1.000
    C65     C    0.91201   0.04938   0.08574   1.000
    C66     C    0.47037   0.70175   0.99366   1.000
    C67     C    0.53088   0.78109   0.93165   1.000
    C68     C    0.70489   0.80983   0.81836   1.000
    C69     C    0.18588   0.54622   0.30978   1.000
    C70     C    0.08865   0.52371   0.40693   1.000
    C71     C    0.64609   0.73793   0.87032   1.000
    C72     C    0.71542   0.00126   0.77244   1.000
    C73     C    0.64954   0.92594   0.82538   1.000
    C74     C    0.04075   0.57369   0.49294   1.000
    C75     C    0.47492   0.89781   0.93773   1.000
    C76     C    0.53384   0.97005   0.88390   1.000
    C77     C    0.04744   0.44991   0.41450   1.000
    O78     O    0.90768   0.10143   0.47513   1.000
    O79     O    0.82827   0.23035   0.56700   1.000
    O80     O    0.50295   0.45121   0.22437   1.000
    O81     O    0.85884   0.10904   0.80725   1.000
    O82     O    0.45239   0.60543   0.28133   1.000
    O83     O    0.03970   0.99751   0.73306   1.000
    O84     O    0.48394   0.39929   0.02380   1.000
    O85     O    0.62656   0.26990   0.93190   1.000
    O86     O    0.17935   0.04810   0.27589   1.000
    O87     O    0.77514   0.39136   0.69228   1.000
    O88     O    0.33957   0.89413   0.21855   1.000
    O89     O    0.77050   0.50295   0.76658   1.000
    O90     O    0.09237   0.89861   0.52472   1.000
    O91     O    0.17178   0.76969   0.43195   1.000
    O92     O    0.49708   0.54881   0.77550   1.000
    O93     O    0.14119   0.89097   0.19262   1.000
    O94     O    0.54763   0.39459   0.71855   1.000
    O95     O    0.96033   0.00251   0.26681   1.000
    O96     O    0.51612   0.60074   0.97605   1.000
    O97     O    0.37350   0.73013   0.06795   1.000
    O98     O    0.82070   0.95194   0.72393   1.000
    O99     O    0.22489   0.60868   0.30757   1.000
    O100    O    0.66048   0.10591   0.78128   1.000
    O101    O    0.22955   0.49707   0.23329   1.000
loop_
    _geom_bond_atom_site_label_1
    _geom_bond_atom_site_label_2
    _geom_bond_distance
    _geom_bond_site_symmetry_2
    _ccdc_geom_bond_type
    H15    C51       1.15242      .   S
    C42    O84       1.28772      .   S
    C42    C43       1.48026      .   S
    C42    O85       1.28060  1_554   S
    C62    H20       1.08959      .   S
    C62    C58       1.40384      .   S
    C62    C41       1.39170  1_554   S
    O84    Cd3       2.34481      .   S
    C51    C43       1.40412      .   S
    C51    C52       1.39157      .   S
    O97    Cd5       2.40620      .   S
    O97    C66       1.28058  1_554   S
    C43    C47       1.40589      .   S
    C65    C58       1.40391  1_645   S
    C65    H23       1.08878      .   S
    C65    C38       1.39227  1_554   S
    C58    C57       1.49368      .   S
    H16    C52       1.08852  1_565   S
    C52    C49       1.40295      .   S
    C47    H13       1.08765      .   S
    C47    C44       1.38912      .   S
    Cd3    O80       2.21535      .   S
    Cd3    O101      2.21257      .   S
    C49    C44       1.40227      .   S
    C49    C48       1.50672  1_545   S
    C44    H12       1.08834      .   S
    C57    O93       1.26977      .   S
    C57    O95       1.28861  1_465   S
    O93    Cd5       2.34510      .   S
    O88    C48       1.27204      .   S
    O88    Cd5       2.24101      .   S
    O80    C36       1.27644      .   S
    C48    O86       1.27640  1_565   S
    O101   C69       1.28829      .   S
    Cd5    O82       2.24243      .   S
    Cd5    O99       2.34214      .   S
    Cd5    O91       2.40549      .   S
    O95    Cd2       2.21129  1_645   S
    H6     C32       1.08864      .   S
    C36    O82       1.27202      .   S
    C36    C37       1.50638      .   S
    O86    Cd2       2.21593  1_545   S
    O99    C69       1.26977      .   S
    C69    C70       1.49404      .   S
    C32    C37       1.40242      .   S
    C32    C35       1.38957      .   S
    C37    C40       1.40288      .   S
    H29    C77       1.08879      .   S
    H7     C35       1.08759      .   S
    Cd2    O78       2.34567  1_465   S
    C35    C31       1.40537      .   S
    C40    H10       1.08823      .   S
    C40    C39       1.39151      .   S
    C70    C77       1.40396      .   S
    C70    C74       1.40404      .   S
    C77    C50       1.39139  1_455   S
    C31    C39       1.40498      .   S
    C31    C30       1.48003      .   S
    O91    C54       1.26901      .   S
    C39    H9        1.08886      .   S
    O78    C30       1.28787      .   S
    H26    C74       1.08959      .   S
    C74    C53       1.39132  1_455   S
    C30    O79       1.26760      .   S
    C54    O90       1.29122      .   S
    C54    C55       1.48791      .   S
    C50    H14       1.08957      .   S
    C50    C46       1.40406      .   S
    H21    C63       1.08888      .   S
    O90    Cd0       2.34556  1_465   S
    C63    C55       1.40496      .   S
    C63    C64       1.39147      .   S
    O79    Cd4       2.41583      .   S
    C55    C59       1.40547      .   S
    C53    C46       1.40388      .   S
    C53    H17       1.08878      .   S
    C46    C45       1.49400      .   S
    H22    C64       1.08849      .   S
    C64    C61       1.40291      .   S
    C59    H19       1.08756      .   S
    C59    C56       1.38919      .   S
    Cd0    O98       2.21593  1_545   S
    Cd0    O83       2.21136  1_645   S
    C61    C56       1.40229      .   S
    C61    C60       1.50634      .   S
    C56    H18       1.08836      .   S
    C45    O87       1.26975      .   S
    C45    O89       1.28833      .   S
    O87    Cd4       2.34214      .   S
    O94    C60       1.27200      .   S
    O94    Cd4       2.24243      .   S
    O98    C72       1.27640  1_565   S
    C60    O92       1.27643      .   S
    O83    C33       1.28856  1_465   S
    Cd4    O100      2.24098      .   S
    Cd4    O81       2.34513      .   S
    Cd4    O85       2.40617      .   S
    O89    Cd1       2.21252      .   S
    C72    O100      1.27206      .   S
    C72    C73       1.50673  1_545   S
    H24    C68       1.08834      .   S
    O92    Cd1       2.21544      .   S
    O81    C33       1.26974      .   S
    C33    C34       1.49371      .   S
    C68    C73       1.40224      .   S
    C68    C71       1.38917      .   S
    C73    C76       1.40288      .   S
    H11    C41       1.08878      .   S
    Cd1    O96       2.34467      .   S
    H25    C71       1.08756      .   S
    C71    C67       1.40536      .   S
    C76    H28       1.08864  1_565   S
    C76    C75       1.39154      .   S
    C34    C41       1.40390  1_645   S
    C34    C38       1.40345      .   S
    C67    C75       1.40495      .   S
    C67    C66       1.48012      .   S
    C75    H27       1.08895      .   S
    O96    C66       1.28779      .   S
    H8     C38       1.09035      .   S
    O78    Cd0       2.36751      .   S
    O79    Cd0       2.47546      .   S
    O84    Cd1       2.36872  1_554   S
    O85    Cd1       2.47402      .   S
    O90    Cd2       2.36768      .   S
    O91    Cd2       2.47220      .   S
    O96    Cd3       2.36889  1_556   S
    O97    Cd3       2.47396      .   S
