# CIF file generated by openbabel 2.4.90, see http://openbabel.sf.net
data_I
_chemical_name_common 'VESTA_phase_1'
_cell_length_a 18.665
_cell_length_b 19.524
_cell_length_c 19.476
_cell_angle_alpha 122.217
_cell_angle_beta 89.958
_cell_angle_gamma 90.118
_space_group_name_H-M_alt 'P 1'
_space_group_name_Hall 'P 1'
loop_
    _symmetry_equiv_pos_as_xyz
    x,y,z
loop_
    _atom_site_label
    _atom_site_type_symbol
    _atom_site_fract_x
    _atom_site_fract_y
    _atom_site_fract_z
    _atom_site_occupancy
    Zn0     Zn   0.28435   0.20386   0.13740   1.000
    Zn1     Zn   0.28434   0.20386   0.63740   1.000
    Zn2     Zn   0.28434   0.70385   0.13739   1.000
    Zn3     Zn   0.28434   0.70385   0.63739   1.000
    Zn4     Zn   0.78434   0.20386   0.13740   1.000
    Zn5     Zn   0.78433   0.20386   0.63740   1.000
    Zn6     Zn   0.78433   0.70385   0.13739   1.000
    Zn7     Zn   0.78433   0.70385   0.63739   1.000
    Zn8     Zn   0.03440   0.29609   0.36253   1.000
    Zn9     Zn   0.03440   0.29609   0.86253   1.000
    Zn10    Zn   0.03440   0.79608   0.36253   1.000
    Zn11    Zn   0.03440   0.79608   0.86253   1.000
    Zn12    Zn   0.53439   0.29609   0.36253   1.000
    Zn13    Zn   0.53439   0.29609   0.86253   1.000
    Zn14    Zn   0.53439   0.79608   0.36253   1.000
    Zn15    Zn   0.53439   0.79608   0.86253   1.000
    H16     H    0.12617   0.26429   0.20979   1.000
    H17     H    0.12616   0.26429   0.70970   1.000
    H18     H    0.12616   0.76428   0.20978   1.000
    H19     H    0.12616   0.76428   0.70978   1.000
    H20     H    0.62616   0.26429   0.20979   1.000
    H21     H    0.62615   0.26429   0.70970   1.000
    H22     H    0.62615   0.76428   0.20978   1.000
    H23     H    0.62615   0.76428   0.70978   1.000
    H24     H    0.21954   0.15891   0.39577   1.000
    H25     H    0.21954   0.15891   0.89577   1.000
    H26     H    0.21954   0.65890   0.39577   1.000
    H27     H    0.21953   0.65890   0.89570   1.000
    H28     H    0.71953   0.15891   0.39577   1.000
    H29     H    0.71953   0.15891   0.89577   1.000
    H30     H    0.71952   0.65890   0.39577   1.000
    H31     H    0.71952   0.65890   0.89570   1.000
    H32     H    0.12576   0.17850   0.40630   1.000
    H33     H    0.12576   0.17850   0.90631   1.000
    H34     H    0.12576   0.67849   0.40631   1.000
    H35     H    0.12576   0.67849   0.90631   1.000
    H36     H    0.62575   0.17850   0.40630   1.000
    H37     H    0.62575   0.17850   0.90631   1.000
    H38     H    0.62575   0.67849   0.40631   1.000
    H39     H    0.62574   0.67849   0.90631   1.000
    H40     H    0.30204   0.29622   0.47342   1.000
    H41     H    0.30203   0.29622   0.97342   1.000
    H42     H    0.30203   0.79621   0.47342   1.000
    H43     H    0.30203   0.79621   0.97342   1.000
    H44     H    0.80203   0.29622   0.47342   1.000
    H45     H    0.80202   0.29622   0.97342   1.000
    H46     H    0.80202   0.79621   0.47342   1.000
    H47     H    0.80202   0.79621   0.97342   1.000
    H48     H    0.28751   0.16053   0.27642   1.000
    H49     H    0.28751   0.16052   0.77640   1.000
    H50     H    0.28751   0.66052   0.27641   1.000
    H51     H    0.28750   0.66052   0.77641   1.000
    H52     H    0.78750   0.16052   0.27642   1.000
    H53     H    0.78750   0.16052   0.77640   1.000
    H54     H    0.78750   0.66052   0.27641   1.000
    H55     H    0.78749   0.66052   0.77641   1.000
    H56     H    0.29741   0.04459   0.13355   1.000
    H57     H    0.29741   0.04458   0.63354   1.000
    H58     H    0.29740   0.54458   0.13354   1.000
    H59     H    0.29740   0.54458   0.63355   1.000
    H60     H    0.79740   0.04459   0.13350   1.000
    H61     H    0.79739   0.04459   0.63354   1.000
    H62     H    0.79739   0.54458   0.13354   1.000
    H63     H    0.79739   0.54458   0.63350   1.000
    H64     H    0.38340   0.05203   0.09831   1.000
    H65     H    0.38340   0.05203   0.59830   1.000
    H66     H    0.38339   0.55202   0.09830   1.000
    H67     H    0.38339   0.55202   0.59831   1.000
    H68     H    0.88339   0.05203   0.09831   1.000
    H69     H    0.88338   0.05203   0.59831   1.000
    H70     H    0.88338   0.55202   0.09830   1.000
    H71     H    0.88338   0.55202   0.59831   1.000
    H72     H    0.14401   0.32184   0.00317   1.000
    H73     H    0.14401   0.32184   0.50317   1.000
    H74     H    0.14400   0.82183   0.50316   1.000
    H75     H    0.14400   0.82183   0.00000   1.000
    H76     H    0.64400   0.32184   0.00317   1.000
    H77     H    0.64400   0.32184   0.50317   1.000
    H78     H    0.64399   0.82183   0.50316   1.000
    H79     H    0.64399   0.82183   0.00000   1.000
    H80     H    0.34288   0.42944   0.45661   1.000
    H81     H    0.34287   0.42944   0.95660   1.000
    H82     H    0.34287   0.92943   0.45661   1.000
    H83     H    0.34287   0.92943   0.95661   1.000
    H84     H    0.84286   0.42944   0.45661   1.000
    H85     H    0.84286   0.42944   0.95660   1.000
    H86     H    0.84286   0.92943   0.45661   1.000
    H87     H    0.84286   0.92943   0.95660   1.000
    H88     H    0.36620   0.40921   0.03132   1.000
    H89     H    0.36619   0.40921   0.53132   1.000
    H90     H    0.36619   0.90921   0.03132   1.000
    H91     H    0.36619   0.90920   0.53132   1.000
    H92     H    0.86619   0.40921   0.03132   1.000
    H93     H    0.86618   0.40921   0.53132   1.000
    H94     H    0.86618   0.90921   0.03132   1.000
    H95     H    0.86618   0.90920   0.53132   1.000
    H96     H    0.33204   0.07477   0.00498   1.000
    H97     H    0.33203   0.07476   0.50498   1.000
    H98     H    0.33203   0.57476   0.00498   1.000
    H99     H    0.33203   0.57476   0.50498   1.000
    H100    H    0.83202   0.07477   0.00498   1.000
    H101    H    0.83202   0.07476   0.50498   1.000
    H102    H    0.83202   0.57476   0.00498   1.000
    H103    H    0.83202   0.57476   0.50498   1.000
    H104    H    0.24897   0.05605   0.02375   1.000
    H105    H    0.24896   0.05605   0.52375   1.000
    H106    H    0.24896   0.55604   0.02375   1.000
    H107    H    0.24896   0.55604   0.52375   1.000
    H108    H    0.74895   0.05605   0.02375   1.000
    H109    H    0.74895   0.05605   0.52375   1.000
    H110    H    0.74895   0.55604   0.02375   1.000
    H111    H    0.74895   0.55604   0.52375   1.000
    H112    H    0.37590   0.23589   0.29030   1.000
    H113    H    0.37589   0.23589   0.79036   1.000
    H114    H    0.37589   0.73588   0.29036   1.000
    H115    H    0.37589   0.73588   0.79036   1.000
    H116    H    0.87589   0.23589   0.29030   1.000
    H117    H    0.87588   0.23589   0.79036   1.000
    H118    H    0.87588   0.73588   0.29036   1.000
    H119    H    0.87588   0.73588   0.79036   1.000
    H120    H    0.47003   0.34092   0.10411   1.000
    H121    H    0.47003   0.34092   0.60410   1.000
    H122    H    0.47003   0.84091   0.10410   1.000
    H123    H    0.47003   0.84091   0.60410   1.000
    H124    H    0.97002   0.34092   0.10411   1.000
    H125    H    0.97002   0.34092   0.60410   1.000
    H126    H    0.97002   0.84091   0.10410   1.000
    H127    H    0.97001   0.84091   0.60410   1.000
    H128    H    0.37619   0.32139   0.09368   1.000
    H129    H    0.37618   0.32139   0.59360   1.000
    H130    H    0.37618   0.82138   0.09367   1.000
    H131    H    0.37618   0.82138   0.59367   1.000
    H132    H    0.87618   0.32139   0.09368   1.000
    H133    H    0.87617   0.32139   0.59367   1.000
    H134    H    0.87617   0.82138   0.09367   1.000
    H135    H    0.87617   0.82138   0.59367   1.000
    H136    H    0.05201   0.20394   0.02682   1.000
    H137    H    0.05200   0.20393   0.52682   1.000
    H138    H    0.05200   0.70393   0.02682   1.000
    H139    H    0.05200   0.70393   0.52680   1.000
    H140    H    0.55200   0.20394   0.02682   1.000
    H141    H    0.55199   0.20393   0.52682   1.000
    H142    H    0.55199   0.70393   0.02682   1.000
    H143    H    0.55199   0.70393   0.52680   1.000
    H144    H    0.03801   0.33909   0.22333   1.000
    H145    H    0.03801   0.33909   0.72333   1.000
    H146    H    0.03801   0.83908   0.22332   1.000
    H147    H    0.03801   0.83908   0.72330   1.000
    H148    H    0.53800   0.33909   0.22333   1.000
    H149    H    0.53800   0.33909   0.72333   1.000
    H150    H    0.53800   0.83908   0.22332   1.000
    H151    H    0.53800   0.83908   0.72332   1.000
    H152    H    0.04721   0.45548   0.36653   1.000
    H153    H    0.04721   0.45548   0.86653   1.000
    H154    H    0.04720   0.95547   0.36653   1.000
    H155    H    0.04720   0.95547   0.86653   1.000
    H156    H    0.54720   0.45548   0.36653   1.000
    H157    H    0.54720   0.45548   0.86653   1.000
    H158    H    0.54720   0.95547   0.36653   1.000
    H159    H    0.54719   0.95547   0.86653   1.000
    H160    H    0.13330   0.44853   0.40172   1.000
    H161    H    0.13330   0.44853   0.90172   1.000
    H162    H    0.13330   0.94852   0.40172   1.000
    H163    H    0.13330   0.94853   0.90172   1.000
    H164    H    0.63329   0.44853   0.40172   1.000
    H165    H    0.63329   0.44853   0.90172   1.000
    H166    H    0.63329   0.94852   0.40172   1.000
    H167    H    0.63329   0.94852   0.90172   1.000
    H168    H    0.39394   0.17796   0.49688   1.000
    H169    H    0.39394   0.17796   0.99688   1.000
    H170    H    0.39393   0.67795   0.99688   1.000
    H171    H    0.39393   0.67795   0.49688   1.000
    H172    H    0.89393   0.17796   0.99688   1.000
    H173    H    0.89393   0.17796   0.49688   1.000
    H174    H    0.89392   0.67795   0.99688   1.000
    H175    H    0.89392   0.67795   0.49688   1.000
    H176    H    0.09257   0.07090   0.04353   1.000
    H177    H    0.09257   0.07090   0.54352   1.000
    H178    H    0.09257   0.57090   0.04352   1.000
    H179    H    0.09256   0.57089   0.54352   1.000
    H180    H    0.59256   0.07090   0.04353   1.000
    H181    H    0.59256   0.07090   0.54352   1.000
    H182    H    0.59256   0.57090   0.04350   1.000
    H183    H    0.59255   0.57089   0.54352   1.000
    H184    H    0.11613   0.09119   0.46887   1.000
    H185    H    0.11613   0.09119   0.96888   1.000
    H186    H    0.11613   0.59118   0.46887   1.000
    H187    H    0.11612   0.59118   0.96887   1.000
    H188    H    0.61612   0.09119   0.46887   1.000
    H189    H    0.61612   0.09119   0.96888   1.000
    H190    H    0.61611   0.59118   0.46880   1.000
    H191    H    0.61611   0.59118   0.96887   1.000
    H192    H    0.08232   0.42524   0.49489   1.000
    H193    H    0.08232   0.42524   0.99480   1.000
    H194    H    0.08232   0.92523   0.49488   1.000
    H195    H    0.08231   0.92523   0.99489   1.000
    H196    H    0.58231   0.42524   0.49489   1.000
    H197    H    0.58231   0.42524   0.99480   1.000
    H198    H    0.58231   0.92523   0.49480   1.000
    H199    H    0.58230   0.92523   0.99480   1.000
    H200    H    0.49911   0.44362   0.47639   1.000
    H201    H    0.49910   0.44362   0.97630   1.000
    H202    H    0.49910   0.94361   0.47638   1.000
    H203    H    0.49910   0.94361   0.97638   1.000
    H204    H    0.99910   0.44362   0.47639   1.000
    H205    H    0.99909   0.44362   0.97630   1.000
    H206    H    0.99909   0.94361   0.47638   1.000
    H207    H    0.99909   0.94361   0.97638   1.000
    C208    C    0.15490   0.24458   0.24454   1.000
    C209    C    0.15490   0.24457   0.74454   1.000
    C210    C    0.15490   0.74457   0.24454   1.000
    C211    C    0.15489   0.74457   0.74454   1.000
    C212    C    0.65489   0.24457   0.24454   1.000
    C213    C    0.65489   0.24457   0.74454   1.000
    C214    C    0.65489   0.74457   0.24454   1.000
    C215    C    0.65488   0.74457   0.74454   1.000
    C216    C    0.17823   0.20291   0.40410   1.000
    C217    C    0.17822   0.20291   0.90410   1.000
    C218    C    0.17822   0.70290   0.40410   1.000
    C219    C    0.17822   0.70290   0.90400   1.000
    C220    C    0.67822   0.20291   0.40410   1.000
    C221    C    0.67821   0.20291   0.90410   1.000
    C222    C    0.67821   0.70290   0.40410   1.000
    C223    C    0.67821   0.70290   0.90400   1.000
    C224    C    0.23763   0.18991   0.27854   1.000
    C225    C    0.23762   0.18991   0.77854   1.000
    C226    C    0.23762   0.68990   0.27854   1.000
    C227    C    0.23762   0.68990   0.77854   1.000
    C228    C    0.73762   0.18991   0.27854   1.000
    C229    C    0.73761   0.18991   0.77854   1.000
    C230    C    0.73761   0.68990   0.27854   1.000
    C231    C    0.73761   0.68990   0.77854   1.000
    C232    C    0.18241   0.21270   0.33336   1.000
    C233    C    0.18241   0.21269   0.83336   1.000
    C234    C    0.18240   0.71269   0.33336   1.000
    C235    C    0.18240   0.71269   0.83336   1.000
    C236    C    0.68240   0.21270   0.33336   1.000
    C237    C    0.68240   0.21269   0.83336   1.000
    C238    C    0.68239   0.71269   0.33336   1.000
    C239    C    0.68239   0.71269   0.83336   1.000
    C240    C    0.32805   0.03152   0.07971   1.000
    C241    C    0.32805   0.03151   0.57970   1.000
    C242    C    0.32805   0.53151   0.07970   1.000
    C243    C    0.32804   0.53151   0.57971   1.000
    C244    C    0.82804   0.03152   0.07971   1.000
    C245    C    0.82804   0.03152   0.57971   1.000
    C246    C    0.82804   0.53151   0.07970   1.000
    C247    C    0.82803   0.53151   0.57971   1.000
    C248    C    0.19594   0.25803   0.05160   1.000
    C249    C    0.19594   0.25802   0.55160   1.000
    C250    C    0.19594   0.75802   0.05160   1.000
    C251    C    0.19593   0.75802   0.55100   1.000
    C252    C    0.69593   0.25803   0.05160   1.000
    C253    C    0.69593   0.25802   0.55160   1.000
    C254    C    0.69593   0.75802   0.05160   1.000
    C255    C    0.69592   0.75802   0.55100   1.000
    C256    C    0.19048   0.28207   0.48808   1.000
    C257    C    0.19048   0.28207   0.98808   1.000
    C258    C    0.19048   0.78206   0.48808   1.000
    C259    C    0.19048   0.78206   0.98808   1.000
    C260    C    0.69047   0.28207   0.48808   1.000
    C261    C    0.69047   0.28207   0.98808   1.000
    C262    C    0.69047   0.78206   0.48808   1.000
    C263    C    0.69046   0.78206   0.98808   1.000
    C264    C    0.32654   0.44062   0.01615   1.000
    C265    C    0.32654   0.44062   0.51615   1.000
    C266    C    0.32654   0.94062   0.01615   1.000
    C267    C    0.32653   0.94061   0.51615   1.000
    C268    C    0.82653   0.44062   0.01615   1.000
    C269    C    0.82653   0.44062   0.51615   1.000
    C270    C    0.82652   0.94062   0.01615   1.000
    C271    C    0.82652   0.94061   0.51615   1.000
    C272    C    0.25255   0.40376   0.00880   1.000
    C273    C    0.25255   0.40377   0.50881   1.000
    C274    C    0.25254   0.90376   0.00881   1.000
    C275    C    0.25254   0.90375   0.50880   1.000
    C276    C    0.75254   0.40377   0.00881   1.000
    C277    C    0.75253   0.40376   0.50881   1.000
    C278    C    0.75253   0.90376   0.00881   1.000
    C279    C    0.75253   0.90375   0.50880   1.000
    C280    C    0.40482   0.25549   0.25550   1.000
    C281    C    0.40481   0.25549   0.75553   1.000
    C282    C    0.40481   0.75548   0.25553   1.000
    C283    C    0.40481   0.75548   0.75553   1.000
    C284    C    0.90481   0.25549   0.25553   1.000
    C285    C    0.90480   0.25549   0.75553   1.000
    C286    C    0.90480   0.75548   0.25553   1.000
    C287    C    0.90480   0.75548   0.75553   1.000
    C288    C    0.42854   0.29696   0.09580   1.000
    C289    C    0.42853   0.29696   0.59586   1.000
    C290    C    0.42853   0.79695   0.09586   1.000
    C291    C    0.42853   0.79695   0.59586   1.000
    C292    C    0.92853   0.29696   0.09580   1.000
    C293    C    0.92852   0.29696   0.59586   1.000
    C294    C    0.92852   0.79695   0.09586   1.000
    C295    C    0.92852   0.79695   0.59586   1.000
    C296    C    0.48793   0.30988   0.22133   1.000
    C297    C    0.48793   0.30988   0.72133   1.000
    C298    C    0.48792   0.80987   0.22133   1.000
    C299    C    0.48792   0.80987   0.72133   1.000
    C300    C    0.98792   0.30988   0.22133   1.000
    C301    C    0.98791   0.30988   0.72133   1.000
    C302    C    0.98791   0.80987   0.22133   1.000
    C303    C    0.98791   0.80987   0.72133   1.000
    C304    C    0.43263   0.28722   0.16662   1.000
    C305    C    0.43263   0.28722   0.66662   1.000
    C306    C    0.43262   0.78721   0.16662   1.000
    C307    C    0.43262   0.78721   0.66662   1.000
    C308    C    0.93262   0.28722   0.16662   1.000
    C309    C    0.93261   0.28722   0.66662   1.000
    C310    C    0.93261   0.78721   0.16662   1.000
    C311    C    0.93261   0.78721   0.66662   1.000
    C312    C    0.07795   0.46871   0.42035   1.000
    C313    C    0.07795   0.46871   0.92035   1.000
    C314    C    0.07795   0.96870   0.42035   1.000
    C315    C    0.07794   0.96871   0.92035   1.000
    C316    C    0.57794   0.46871   0.42035   1.000
    C317    C    0.57794   0.46871   0.92035   1.000
    C318    C    0.57793   0.96870   0.42035   1.000
    C319    C    0.57793   0.96870   0.92035   1.000
    C320    C    0.44598   0.24189   0.44842   1.000
    C321    C    0.44598   0.24189   0.94842   1.000
    C322    C    0.44598   0.74188   0.44842   1.000
    C323    C    0.44597   0.74188   0.94842   1.000
    C324    C    0.94597   0.24189   0.44842   1.000
    C325    C    0.94597   0.24189   0.94842   1.000
    C326    C    0.94597   0.74188   0.44842   1.000
    C327    C    0.94596   0.74188   0.94842   1.000
    C328    C    0.44052   0.21777   0.01190   1.000
    C329    C    0.44052   0.21777   0.51100   1.000
    C330    C    0.44052   0.71776   0.01189   1.000
    C331    C    0.44052   0.71776   0.51189   1.000
    C332    C    0.94051   0.21777   0.01190   1.000
    C333    C    0.94051   0.21777   0.51100   1.000
    C334    C    0.94051   0.71776   0.01189   1.000
    C335    C    0.94051   0.71776   0.51189   1.000
    C336    C    0.07639   0.05960   0.48390   1.000
    C337    C    0.07638   0.05960   0.98390   1.000
    C338    C    0.07638   0.55959   0.48390   1.000
    C339    C    0.07638   0.55959   0.98390   1.000
    C340    C    0.57637   0.05960   0.48390   1.000
    C341    C    0.57637   0.05960   0.98390   1.000
    C342    C    0.57637   0.55959   0.48390   1.000
    C343    C    0.57637   0.55959   0.98390   1.000
    C344    C    0.00243   0.09613   0.49099   1.000
    C345    C    0.00243   0.09614   0.99099   1.000
    C346    C    0.00242   0.59613   0.49099   1.000
    C347    C    0.00242   0.59613   0.99099   1.000
    C348    C    0.50242   0.09614   0.49099   1.000
    C349    C    0.50241   0.09613   0.99099   1.000
    C350    C    0.50241   0.59613   0.49099   1.000
    C351    C    0.50241   0.59613   0.99099   1.000
    N352    N    0.29775   0.08113   0.04960   1.000
    N353    N    0.29774   0.08113   0.54962   1.000
    N354    N    0.29774   0.58112   0.04962   1.000
    N355    N    0.29774   0.58112   0.54962   1.000
    N356    N    0.79773   0.08113   0.04960   1.000
    N357    N    0.79773   0.08113   0.54962   1.000
    N358    N    0.79773   0.58112   0.04962   1.000
    N359    N    0.79773   0.58112   0.54962   1.000
    N360    N    0.25340   0.32615   0.48897   1.000
    N361    N    0.25339   0.32615   0.98897   1.000
    N362    N    0.25339   0.82614   0.48897   1.000
    N363    N    0.25339   0.82614   0.98897   1.000
    N364    N    0.75338   0.32615   0.48897   1.000
    N365    N    0.75338   0.32615   0.98897   1.000
    N366    N    0.75338   0.82614   0.48897   1.000
    N367    N    0.75338   0.82614   0.98897   1.000
    N368    N    0.22023   0.21019   0.22244   1.000
    N369    N    0.22023   0.21019   0.72244   1.000
    N370    N    0.22023   0.71018   0.22244   1.000
    N371    N    0.22023   0.71018   0.72244   1.000
    N372    N    0.72022   0.21019   0.22244   1.000
    N373    N    0.72022   0.21019   0.72244   1.000
    N374    N    0.72022   0.71018   0.22244   1.000
    N375    N    0.72022   0.71018   0.72244   1.000
    N376    N    0.12972   0.24778   0.31133   1.000
    N377    N    0.12971   0.24778   0.81133   1.000
    N378    N    0.12971   0.74777   0.31133   1.000
    N379    N    0.12971   0.74777   0.81133   1.000
    N380    N    0.62970   0.24778   0.31133   1.000
    N381    N    0.62970   0.24778   0.81133   1.000
    N382    N    0.62970   0.74777   0.31133   1.000
    N383    N    0.62970   0.74777   0.81133   1.000
    N384    N    0.04787   0.41886   0.45039   1.000
    N385    N    0.04786   0.41886   0.95039   1.000
    N386    N    0.04786   0.91885   0.45039   1.000
    N387    N    0.04786   0.91885   0.95039   1.000
    N388    N    0.54786   0.41886   0.45039   1.000
    N389    N    0.54785   0.41886   0.95039   1.000
    N390    N    0.54785   0.91885   0.45039   1.000
    N391    N    0.54785   0.91885   0.95039   1.000
    N392    N    0.00335   0.17381   0.01100   1.000
    N393    N    0.00335   0.17381   0.51100   1.000
    N394    N    0.00335   0.67380   0.01100   1.000
    N395    N    0.00334   0.67380   0.51100   1.000
    N396    N    0.50334   0.17381   0.01100   1.000
    N397    N    0.50334   0.17381   0.51100   1.000
    N398    N    0.50334   0.67380   0.01100   1.000
    N399    N    0.50333   0.67380   0.51100   1.000
    N400    N    0.47035   0.28968   0.27749   1.000
    N401    N    0.47034   0.28968   0.77749   1.000
    N402    N    0.47034   0.78967   0.27749   1.000
    N403    N    0.47034   0.78967   0.77749   1.000
    N404    N    0.97033   0.28968   0.27749   1.000
    N405    N    0.97033   0.28968   0.77749   1.000
    N406    N    0.97033   0.78967   0.27749   1.000
    N407    N    0.97033   0.78967   0.77749   1.000
    N408    N    0.37969   0.25231   0.18876   1.000
    N409    N    0.37969   0.25231   0.68876   1.000
    N410    N    0.37968   0.75230   0.18876   1.000
    N411    N    0.37968   0.75230   0.68876   1.000
    N412    N    0.87968   0.25231   0.18876   1.000
    N413    N    0.87968   0.25231   0.68876   1.000
    N414    N    0.87967   0.75230   0.18876   1.000
    N415    N    0.87967   0.75230   0.68876   1.000
    O416    O    0.26037   0.24955   0.07013   1.000
    O417    O    0.26036   0.24955   0.57013   1.000
    O418    O    0.26036   0.74954   0.07013   1.000
    O419    O    0.26036   0.74954   0.57013   1.000
    O420    O    0.76035   0.24955   0.07013   1.000
    O421    O    0.76035   0.24955   0.57013   1.000
    O422    O    0.76035   0.74954   0.07013   1.000
    O423    O    0.76035   0.74954   0.57013   1.000
    O424    O    0.13973   0.24461   0.07750   1.000
    O425    O    0.13972   0.24461   0.57751   1.000
    O426    O    0.13972   0.74460   0.07751   1.000
    O427    O    0.13972   0.74460   0.57751   1.000
    O428    O    0.63972   0.24461   0.07750   1.000
    O429    O    0.63972   0.24461   0.57751   1.000
    O430    O    0.63971   0.74460   0.07751   1.000
    O431    O    0.63971   0.74460   0.57751   1.000
    O432    O    0.19687   0.44494   0.02260   1.000
    O433    O    0.19687   0.44494   0.52265   1.000
    O434    O    0.19687   0.94494   0.02265   1.000
    O435    O    0.19687   0.94493   0.52264   1.000
    O436    O    0.69686   0.44495   0.02260   1.000
    O437    O    0.69686   0.44494   0.52260   1.000
    O438    O    0.69686   0.94494   0.02265   1.000
    O439    O    0.69686   0.94493   0.52264   1.000
    O440    O    0.01043   0.25010   0.42956   1.000
    O441    O    0.01043   0.25009   0.92956   1.000
    O442    O    0.01043   0.75009   0.42956   1.000
    O443    O    0.01042   0.75009   0.92956   1.000
    O444    O    0.51042   0.25010   0.42956   1.000
    O445    O    0.51042   0.25009   0.92956   1.000
    O446    O    0.51041   0.75009   0.42956   1.000
    O447    O    0.51041   0.75009   0.92956   1.000
    O448    O    0.38981   0.25568   0.42291   1.000
    O449    O    0.38980   0.25568   0.92291   1.000
    O450    O    0.38980   0.75567   0.42291   1.000
    O451    O    0.38980   0.75567   0.92290   1.000
    O452    O    0.88980   0.25568   0.42291   1.000
    O453    O    0.88979   0.25568   0.92291   1.000
    O454    O    0.88979   0.75567   0.42291   1.000
    O455    O    0.88979   0.75567   0.92290   1.000
    O456    O    0.44674   0.05468   0.47680   1.000
    O457    O    0.44673   0.05468   0.97686   1.000
    O458    O    0.44673   0.55467   0.47686   1.000
    O459    O    0.44673   0.55467   0.97685   1.000
    O460    O    0.94673   0.05468   0.47680   1.000
    O461    O    0.94672   0.05468   0.97686   1.000
    O462    O    0.94672   0.55467   0.47686   1.000
    O463    O    0.94672   0.55467   0.97685   1.000
loop_
    _geom_bond_atom_site_label_1
    _geom_bond_atom_site_label_2
    _geom_bond_distance
    _geom_bond_site_symmetry_2
    _ccdc_geom_bond_type
    H75    C259      1.10436  1_554   S
    H79    C263      1.10437  1_554   S
    H76    C261      1.09581  1_554   S
    H72    C257      1.09581  1_554   S
    H102   N358      1.03211      .   S
    H100   N356      1.03180      .   S
    H98    N354      1.03211      .   S
    H96    N352      1.03181      .   S
    C272   C264      1.52709      .   S
    C272   O432      1.25344      .   S
    C272   N361      1.34973  1_554   S
    C278   C270      1.52712      .   S
    C278   O438      1.25334      .   S
    C278   N367      1.34967  1_554   S
    C274   C266      1.52713      .   S
    C274   O434      1.25333      .   S
    C274   N363      1.34969  1_554   S
    C276   C268      1.52712      .   S
    C276   O436      1.25348      .   S
    C276   N365      1.34965  1_554   S
    N398   C330      1.44908      .   S
    N398   H142      1.03470      .   S
    N398   C351      1.34976  1_554   S
    N392   C332      1.44935  1_455   S
    N392   H136      1.03468      .   S
    N392   C345      1.34975  1_554   S
    N394   C334      1.44941  1_455   S
    N394   H138      1.03470      .   S
    N394   C347      1.34976  1_554   S
    N396   C328      1.44905      .   S
    N396   H140      1.03468      .   S
    N396   C349      1.34975  1_554   S
    C330   C290      1.55563      .   S
    C330   C323      1.54282  1_554   S
    C330   H170      1.09590  1_554   S
    C334   C294      1.55563      .   S
    C334   C327      1.54282  1_554   S
    C334   H174      1.09588  1_554   S
    C332   C292      1.55492      .   S
    C332   C325      1.54300  1_554   S
    C332   H172      1.09588  1_554   S
    C328   C288      1.55491      .   S
    C328   C321      1.54300  1_554   S
    C328   H169      1.09586  1_554   S
    C270   H94       1.09848      .   S
    C270   C244      1.52978  1_565   S
    C270   H87       1.10248  1_554   S
    C268   H92       1.09847      .   S
    C268   C246      1.52949      .   S
    C268   H85       1.10247  1_554   S
    C266   H90       1.09846      .   S
    C266   C240      1.52979  1_565   S
    C266   H83       1.10230  1_554   S
    C264   H88       1.09848      .   S
    C264   C242      1.52949      .   S
    C264   H81       1.10247  1_554   S
    H104   N352      1.02868      .   S
    H106   N354      1.02877      .   S
    H108   N356      1.02870      .   S
    H110   N358      1.02877      .   S
    H182   C343      1.10203  1_554   S
    H178   C339      1.10240  1_554   S
    H180   C341      1.10259  1_554   S
    H176   C337      1.10259  1_554   S
    N352   C240      1.48682      .   S
    N352   Zn0       2.08831      .   S
    N356   C244      1.48683      .   S
    N356   Zn4       2.08831      .   S
    N354   C242      1.48641      .   S
    N354   Zn2       2.08818      .   S
    N358   C246      1.48641      .   S
    N358   Zn6       2.08819      .   S
    C248   O416      1.29175      .   S
    C248   O424      1.25019      .   S
    C248   C257      1.54296  1_554   S
    C250   O418      1.29175      .   S
    C250   O426      1.25029      .   S
    C250   C259      1.54298  1_554   S
    C252   O420      1.29175      .   S
    C252   O428      1.25018      .   S
    C252   C261      1.54296  1_554   S
    C254   O422      1.29175      .   S
    C254   O430      1.25028      .   S
    C254   C263      1.54296  1_554   S
    O422   Zn6       1.99011      .   S
    O418   Zn2       1.99013      .   S
    O420   Zn4       1.99028      .   S
    O416   Zn0       1.99028      .   S
    C242   H66       1.09681      .   S
    C242   H58       1.09825      .   S
    C246   H70       1.09681      .   S
    C246   H62       1.09825      .   S
    C240   H64       1.09683      .   S
    C240   H56       1.09826      .   S
    C244   H68       1.09683      .   S
    C244   H60       1.09745      .   S
    H134   C294      1.09898      .   S
    H130   C290      1.09898      .   S
    H128   C288      1.09862      .   S
    H132   C292      1.09861      .   S
    C292   H124      1.10093      .   S
    C292   C308      1.49140      .   S
    C288   H120      1.10093      .   S
    C288   C304      1.49139      .   S
    C294   H126      1.10130      .   S
    C294   C310      1.49024      .   S
    C290   H122      1.10130      .   S
    C290   C306      1.49024      .   S
    Zn6    N414      2.01228      .   S
    Zn6    N374      1.99258      .   S
    Zn2    N410      2.01227      .   S
    Zn2    N370      1.99257      .   S
    Zn0    N408      2.01222      .   S
    Zn0    N368      1.99243      .   S
    Zn4    N412      2.01222      .   S
    Zn4    N372      1.99244      .   S
    C310   N414      1.39171      .   S
    C310   C302      1.37609      .   S
    C308   N412      1.39172      .   S
    C308   C300      1.37609      .   S
    C306   N410      1.39172      .   S
    C306   C298      1.37609      .   S
    C304   N408      1.39172      .   S
    C304   C296      1.37609      .   S
    N412   C284      1.35267      .   S
    N414   C286      1.35265      .   S
    N410   C282      1.35266      .   S
    N408   C280      1.35211      .   S
    H22    C214      1.08327      .   S
    H18    C210      1.08325      .   S
    H16    C208      1.08309      .   S
    H20    C212      1.08310      .   S
    C302   H146      1.08414  1_655   S
    C302   N406      1.38507      .   S
    C300   H144      1.08409  1_655   S
    C300   N404      1.38507      .   S
    C298   H150      1.08380      .   S
    C298   N402      1.38505      .   S
    C296   H148      1.08373      .   S
    C296   N400      1.38507      .   S
    N372   C212      1.34809      .   S
    N372   C228      1.38509      .   S
    N374   C214      1.34809      .   S
    N374   C230      1.38509      .   S
    N370   C210      1.34809      .   S
    N370   C226      1.38510      .   S
    N368   C208      1.34809      .   S
    N368   C224      1.38510      .   S
    C210   N378      1.35258      .   S
    C208   N376      1.35257      .   S
    C212   N380      1.35257      .   S
    C214   N382      1.35258      .   S
    C280   N400      1.34816      .   S
    C280   H112      1.08269      .   S
    C284   N404      1.34814      .   S
    C284   H116      1.08222      .   S
    C282   N402      1.34814      .   S
    C282   H114      1.08317      .   S
    C286   N406      1.34813      .   S
    C286   H118      1.08317      .   S
    H54    C230      1.08375      .   S
    H50    C226      1.08374      .   S
    H52    C228      1.08381      .   S
    H48    C224      1.08380      .   S
    N400   Zn12      1.99228      .   S
    N406   Zn10      1.99252  1_655   S
    N404   Zn8       1.99252  1_655   S
    N402   Zn14      1.99228      .   S
    C226   C234      1.37618      .   S
    C228   C236      1.37617      .   S
    C230   C238      1.37619      .   S
    C224   C232      1.37617      .   S
    N376   C232      1.39190      .   S
    N376   Zn8       2.01252      .   S
    N378   C234      1.39190      .   S
    N378   Zn10      2.01252      .   S
    N380   C236      1.39189      .   S
    N380   Zn12      2.01253      .   S
    N382   C238      1.39190      .   S
    N382   Zn14      2.01253      .   S
    C238   C222      1.49039      .   S
    C236   C220      1.49040      .   S
    C234   C218      1.49039      .   S
    C232   C216      1.49039      .   S
    Zn10   O442      1.98957      .   S
    Zn10   N386      2.08834      .   S
    Zn14   O446      1.98959      .   S
    Zn14   N390      2.08833      .   S
    Zn12   O444      1.98959      .   S
    Zn12   N388      2.08834      .   S
    Zn8    O440      1.98958      .   S
    Zn8    N384      2.08834      .   S
    H158   C318      1.09825      .   S
    H152   C312      1.09825      .   S
    H156   C316      1.09825      .   S
    H154   C314      1.09826      .   S
    H26    C218      1.10127      .   S
    H30    C222      1.10125      .   S
    H28    C220      1.10127      .   S
    H24    C216      1.10127      .   S
    H160   C312      1.09685      .   S
    H162   C314      1.09685      .   S
    H164   C316      1.09685      .   S
    H166   C318      1.09685      .   S
    C216   H32       1.09890      .   S
    C216   C256      1.55563      .   S
    C218   H34       1.09896      .   S
    C218   C258      1.55563      .   S
    C220   H36       1.09890      .   S
    C220   C260      1.55564      .   S
    C222   H38       1.09897      .   S
    C222   C262      1.55563      .   S
    C318   N390      1.48646      .   S
    C318   C340      1.52983  1_565   S
    C314   N386      1.48646      .   S
    C314   C336      1.52981  1_565   S
    C316   N388      1.48646      .   S
    C316   C342      1.52958      .   S
    C312   N384      1.48646      .   S
    C312   C338      1.52958      .   S
    O450   C322      1.25029      .   S
    O454   C326      1.25029      .   S
    O452   C324      1.25029      .   S
    O448   C320      1.25029      .   S
    O440   C324      1.29210  1_455   S
    O446   C322      1.29171      .   S
    O444   C320      1.29171      .   S
    O442   C326      1.29209  1_455   S
    C322   C331      1.54287      .   S
    C326   C335      1.54287      .   S
    C320   C329      1.52617      .   S
    C324   C333      1.52617      .   S
    N384   H204      1.02903  1_455   S
    N384   H192      1.03226      .   S
    N390   H202      1.02864      .   S
    N390   H198      1.03089      .   S
    N386   H206      1.02900  1_455   S
    N386   H194      1.03211      .   S
    N388   H200      1.02868      .   S
    N388   H196      1.03226      .   S
    H82    C267      1.10235      .   S
    H80    C265      1.10235      .   S
    H86    C271      1.10236      .   S
    H84    C269      1.10235      .   S
    H190   C342      1.09922      .   S
    H184   C336      1.09846      .   S
    H188   C340      1.09848      .   S
    H186   C338      1.09846      .   S
    H46    N366      1.03466      .   S
    H44    N364      1.03468      .   S
    H42    N362      1.03466      .   S
    H40    N360      1.03468      .   S
    O460   C344      1.25336  1_655   S
    O456   C348      1.25303      .   S
    O458   C350      1.25318      .   S
    O462   C346      1.25352  1_655   S
    C338   C346      1.52715      .   S
    C338   H179      1.10240      .   S
    C342   C350      1.52715      .   S
    C342   H183      1.10240      .   S
    C336   C344      1.52713      .   S
    C336   H177      1.10240      .   S
    C340   C348      1.52713      .   S
    C340   H181      1.10241      .   S
    C260   N364      1.44909      .   S
    C260   H77       1.09585      .   S
    C260   C253      1.54301      .   S
    C262   N366      1.44909      .   S
    C262   H78       1.09588      .   S
    C262   C255      1.53175      .   S
    C256   N360      1.44909      .   S
    C256   H73       1.09585      .   S
    C256   C249      1.54301      .   S
    C258   N362      1.44910      .   S
    C258   H74       1.09589      .   S
    C258   C251      1.53174      .   S
    N366   C279      1.34968      .   S
    N360   C273      1.34962      .   S
    N362   C275      1.34968      .   S
    N364   C277      1.34960      .   S
    C346   N395      1.34969      .   S
    C344   N393      1.34971      .   S
    C350   N399      1.34967      .   S
    C348   N397      1.34969      .   S
    H173   C333      1.09794      .   S
    H175   C335      1.09588      .   S
    H168   C329      1.09794      .   S
    H171   C331      1.09588      .   S
    H103   N359      1.03212      .   S
    H101   N357      1.03211      .   S
    H99    N355      1.03212      .   S
    H97    N353      1.03210      .   S
    C279   C271      1.52709      .   S
    C279   O439      1.25333      .   S
    C275   C267      1.52709      .   S
    C275   O435      1.25333      .   S
    C277   C269      1.52712      .   S
    C277   O437      1.25347      .   S
    C273   C265      1.52712      .   S
    C273   O433      1.25334      .   S
    N399   C331      1.44909      .   S
    N399   H143      1.03470      .   S
    N397   C329      1.45448      .   S
    N397   H141      1.03468      .   S
    N395   C335      1.44941  1_455   S
    N395   H139      1.03469      .   S
    C329   C289      1.56472      .   S
    N393   C333      1.45481  1_455   S
    N393   H137      1.03467      .   S
    C333   C293      1.56472      .   S
    C331   C291      1.55563      .   S
    C335   C295      1.55563      .   S
    C265   H89       1.09846      .   S
    C265   C243      1.52953      .   S
    C269   H93       1.09846      .   S
    C269   C247      1.52954      .   S
    C267   H91       1.09848      .   S
    C267   C241      1.52974  1_565   S
    C271   H95       1.09847      .   S
    C271   C245      1.52979  1_565   S
    H107   N355      1.02877      .   S
    H111   N359      1.02877      .   S
    H109   N357      1.02877      .   S
    H105   N353      1.02879      .   S
    N359   C247      1.48653      .   S
    N359   Zn7       2.08819      .   S
    N357   C245      1.48653      .   S
    N357   Zn5       2.08823      .   S
    N355   C243      1.48653      .   S
    N355   Zn3       2.08819      .   S
    N353   C241      1.48640      .   S
    N353   Zn1       2.08823      .   S
    C251   O419      1.29588      .   S
    C251   O427      1.25633      .   S
    C255   O423      1.29586      .   S
    C255   O431      1.25635      .   S
    C253   O421      1.29174      .   S
    C253   O429      1.25029      .   S
    C249   O417      1.29174      .   S
    C249   O425      1.25031      .   S
    O419   Zn3       1.99011      .   S
    O421   Zn5       1.99030      .   S
    O417   Zn1       1.99030      .   S
    O423   Zn7       1.99011      .   S
    C241   H65       1.09681      .   S
    C241   H57       1.09826      .   S
    C243   H67       1.09681      .   S
    C243   H59       1.09826      .   S
    C245   H69       1.09681      .   S
    C245   H61       1.09810      .   S
    C247   H71       1.09683      .   S
    C247   H63       1.09744      .   S
    H129   C289      1.09936      .   S
    H131   C291      1.09897      .   S
    H133   C293      1.09899      .   S
    H135   C295      1.09897      .   S
    C289   H121      1.10130      .   S
    C289   C305      1.49023      .   S
    C295   H127      1.10130      .   S
    C295   C311      1.49023      .   S
    C293   H125      1.10130      .   S
    C293   C309      1.49023      .   S
    C291   H123      1.10130      .   S
    C291   C307      1.49023      .   S
    Zn3    N411      2.01227      .   S
    Zn3    N371      1.99257      .   S
    Zn7    N415      2.01228      .   S
    Zn7    N375      1.99257      .   S
    Zn1    N409      2.01222      .   S
    Zn1    N369      1.99244      .   S
    Zn5    N413      2.01222      .   S
    Zn5    N373      1.99244      .   S
    C311   N415      1.39171      .   S
    C311   C303      1.37609      .   S
    C309   N413      1.39172      .   S
    C309   C301      1.37610      .   S
    C307   N411      1.39172      .   S
    C307   C299      1.37609      .   S
    C305   N409      1.39172      .   S
    C305   C297      1.37610      .   S
    N415   C287      1.35265      .   S
    N413   C285      1.35267      .   S
    N411   C283      1.35266      .   S
    N409   C281      1.35267      .   S
    H17    C209      1.08451      .   S
    H21    C213      1.08453      .   S
    H19    C211      1.08327      .   S
    H23    C215      1.08325      .   S
    C299   H151      1.08380      .   S
    C299   N403      1.38507      .   S
    C297   H149      1.08375      .   S
    C297   N401      1.38505      .   S
    C301   H145      1.08409  1_655   S
    C301   N405      1.38505      .   S
    C303   H147      1.08423  1_655   S
    C303   N407      1.38505      .   S
    N375   C215      1.34809      .   S
    N375   C231      1.38510      .   S
    N373   C213      1.34809      .   S
    N373   C229      1.38509      .   S
    N371   C211      1.34809      .   S
    N371   C227      1.38509      .   S
    N369   C209      1.34809      .   S
    N369   C225      1.38509      .   S
    C213   N381      1.35257      .   S
    C209   N377      1.35257      .   S
    C211   N379      1.35258      .   S
    C215   N383      1.35259      .   S
    C285   N405      1.34814      .   S
    C285   H117      1.08317      .   S
    C283   N403      1.34813      .   S
    C283   H115      1.08317      .   S
    C281   N401      1.34814      .   S
    C281   H113      1.08317      .   S
    C287   N407      1.34814      .   S
    C287   H119      1.08317      .   S
    H53    C229      1.08372      .   S
    H49    C225      1.08372      .   S
    H51    C227      1.08376      .   S
    H55    C231      1.08374      .   S
    N401   Zn13      1.99228      .   S
    N405   Zn9       1.99252  1_655   S
    N407   Zn11      1.99253  1_655   S
    N403   Zn15      1.99228      .   S
    C225   C233      1.37617      .   S
    C227   C235      1.37617      .   S
    C229   C237      1.37617      .   S
    C231   C239      1.37619      .   S
    N383   C239      1.39190      .   S
    N383   Zn15      2.01253      .   S
    N381   C237      1.39189      .   S
    N381   Zn13      2.01253      .   S
    N379   C235      1.39190      .   S
    N379   Zn11      2.01252      .   S
    N377   C233      1.39190      .   S
    N377   Zn9       2.01253      .   S
    C233   C217      1.49039      .   S
    C239   C223      1.48846      .   S
    C237   C221      1.49040      .   S
    C235   C219      1.48847      .   S
    Zn9    O441      1.98958      .   S
    Zn9    N385      2.08834      .   S
    Zn11   O443      1.98958      .   S
    Zn11   N387      2.08834      .   S
    Zn13   O445      1.98958      .   S
    Zn13   N389      2.08834      .   S
    Zn15   O447      1.98959      .   S
    Zn15   N391      2.08833      .   S
    H159   C319      1.09824      .   S
    H157   C317      1.09825      .   S
    H155   C315      1.09824      .   S
    H153   C313      1.09826      .   S
    H27    C219      1.10141      .   S
    H31    C223      1.10142      .   S
    H29    C221      1.10127      .   S
    H25    C217      1.10127      .   S
    H163   C315      1.09685      .   S
    H167   C319      1.09685      .   S
    H165   C317      1.09685      .   S
    H161   C313      1.09683      .   S
    C219   H35       1.09950      .   S
    C219   C259      1.55665      .   S
    C223   H39       1.09950      .   S
    C223   C263      1.55664      .   S
    C217   H33       1.09897      .   S
    C217   C257      1.55564      .   S
    C221   H37       1.09896      .   S
    C221   C261      1.55564      .   S
    C313   N385      1.48645      .   S
    C313   C339      1.52958      .   S
    C315   N387      1.48649      .   S
    C315   C337      1.52981  1_565   S
    C317   N389      1.48646      .   S
    C317   C343      1.52958      .   S
    C319   N391      1.48648      .   S
    C319   C341      1.52981  1_565   S
    O455   C327      1.25039      .   S
    O451   C323      1.25039      .   S
    O453   C325      1.25029      .   S
    O449   C321      1.25028      .   S
    O441   C325      1.29210  1_455   S
    O443   C327      1.29208  1_455   S
    O445   C321      1.29171      .   S
    O447   C323      1.29170      .   S
    N391   H203      1.02864      .   S
    N391   H199      1.03089      .   S
    N385   H205      1.02861  1_455   S
    N385   H193      1.03090      .   S
    N387   H207      1.02901  1_455   S
    N387   H195      1.03224      .   S
    N389   H201      1.02826      .   S
    N389   H197      1.03090      .   S
    H191   C343      1.09846      .   S
    H187   C339      1.09846      .   S
    H189   C341      1.09838      .   S
    H185   C337      1.09838      .   S
    H47    N367      1.03467      .   S
    H45    N365      1.03469      .   S
    H43    N363      1.03466      .   S
    H41    N361      1.03466      .   S
    O463   C347      1.25348  1_655   S
    O459   C351      1.25314      .   S
    O461   C345      1.25352  1_655   S
    O457   C349      1.25317      .   S
    C337   C345      1.52713      .   S
    C339   C347      1.52715      .   S
    C341   C349      1.52713      .   S
    C343   C351      1.52714      .   S
    C263   N367      1.44910      .   S
    C261   N365      1.44909      .   S
    C259   N363      1.44909      .   S
    C257   N361      1.44908      .   S
