# CIF file generated by openbabel 2.4.90, see http://openbabel.sf.net
data_I
_chemical_name_common ''
_cell_length_a 17.224
_cell_length_b 17.234
_cell_length_c 17.292
_cell_angle_alpha 90.548
_cell_angle_beta 90
_cell_angle_gamma 90
_space_group_name_H-M_alt 'P 1'
_space_group_name_Hall 'P 1'
loop_
    _symmetry_equiv_pos_as_xyz
    x,y,z
loop_
    _atom_site_label
    _atom_site_type_symbol
    _atom_site_fract_x
    _atom_site_fract_y
    _atom_site_fract_z
    _atom_site_occupancy
    Zn0     Zn   0.58569   0.17240   0.00000   1.000
    Zn1     Zn   0.42610   0.26481   0.00000   1.000
    Zn2     Zn   0.51901   0.25859   0.14906   1.000
    Zn3     Zn   0.43781   0.61697   0.42620   1.000
    Zn4     Zn   0.35675   0.76915   0.35553   1.000
    Zn5     Zn   0.79340   0.32925   0.50745   1.000
    Zn6     Zn   0.44750   0.77733   0.51722   1.000
    Zn7     Zn   0.94218   0.90955   0.93097   1.000
    Zn8     Zn   0.07866   0.84503   0.00340   1.000
    Zn9     Zn   0.93597   0.75266   0.01025   1.000
    Zn10    Zn   0.01339   0.75698   0.86633   1.000
    Zn11    Zn   0.94591   0.40032   0.58949   1.000
    Zn12    Zn   0.86426   0.24816   0.65988   1.000
    Zn13    Zn   0.28542   0.68829   0.50810   1.000
    Zn14    Zn   0.95546   0.24011   0.49839   1.000
    H15     H    0.70916   0.99440   0.98121   1.000
    H16     H    0.75120   0.75455   0.11066   1.000
    H17     H    0.67883   0.68768   0.20395   1.000
    H18     H    0.55904   0.72057   0.25886   1.000
    H19     H    0.48043   0.82847   0.23398   1.000
    H20     H    0.50025   0.92892   0.14560   1.000
    H21     H    0.67187   0.22722   0.78715   1.000
    H22     H    0.57428   0.33746   0.54578   1.000
    H23     H    0.45323   0.38706   0.50630   1.000
    H24     H    0.33741   0.39488   0.57616   1.000
    H25     H    0.31283   0.35934   0.70398   1.000
    H26     H    0.39880   0.30747   0.79568   1.000
    H27     H    0.71424   0.27999   0.27550   1.000
    H28     H    0.94936   0.12509   0.31716   1.000
    H29     H    0.00000   0.03222   0.24250   1.000
    H30     H    0.98771   0.00000   0.11918   1.000
    H31     H    0.88053   0.01332   0.04019   1.000
    Zn32    Zn   0.43336   0.10732   0.08427   1.000
    H33     H    0.78024   0.10275   0.06213   1.000
    H34     H    0.40584   0.00000   0.27658   1.000
    H35     H    0.56402   0.95505   0.50746   1.000
    H36     H    0.65915   0.00933   0.57303   1.000
    H37     H    0.70848   0.13215   0.54439   1.000
    H38     H    0.67561   0.21403   0.44224   1.000
    H39     H    0.58325   0.19526   0.34430   1.000
    H40     H    0.46139   0.48622   0.23619   1.000
    H41     H    0.37723   0.47154   0.98057   1.000
    H42     H    0.32435   0.56188   0.89431   1.000
    H43     H    0.28857   0.69067   0.91730   1.000
    H44     H    0.29597   0.76307   0.00000   1.000
    H45     H    0.34633   0.72565   0.13759   1.000
    H46     H    0.66476   0.52748   0.48223   1.000
    H47     H    0.88061   0.59608   0.65452   1.000
    H48     H    0.90459   0.69927   0.74080   1.000
    H49     H    0.82803   0.80876   0.76678   1.000
    H50     H    0.70634   0.84072   0.71612   1.000
    H51     H    0.63051   0.77221   0.62549   1.000
    H52     H    0.20027   0.02293   0.03417   1.000
    H53     H    0.24154   0.26252   0.90438   1.000
    H54     H    0.16932   0.32923   0.81085   1.000
    H55     H    0.04967   0.29623   0.75573   1.000
    H56     H    0.98775   0.18829   0.78062   1.000
    H57     H    0.00000   0.08814   0.86920   1.000
    H58     H    0.16434   0.79039   0.22820   1.000
    H59     H    0.06650   0.68035   0.46962   1.000
    H60     H    0.96212   0.63079   0.50891   1.000
    H61     H    0.84638   0.62289   0.43902   1.000
    H62     H    0.82193   0.65836   0.31114   1.000
    H63     H    0.90801   0.71022   0.21952   1.000
    H64     H    0.20692   0.73688   0.74097   1.000
    H65     H    0.44067   0.89328   0.69748   1.000
    H66     H    0.50783   0.98656   0.77145   1.000
    H67     H    0.47829   0.01701   0.89528   1.000
    H68     H    0.37374   0.00000   0.97514   1.000
    H69     H    0.27357   0.91468   0.95388   1.000
    H70     H    0.91345   0.01590   0.73914   1.000
    H71     H    0.05480   0.06221   0.50800   1.000
    H72     H    0.15160   0.00000   0.44251   1.000
    H73     H    0.20109   0.88518   0.47122   1.000
    H74     H    0.16839   0.80334   0.57346   1.000
    H75     H    0.07602   0.82204   0.67140   1.000
    H76     H    0.97136   0.52955   0.77951   1.000
    H77     H    0.88752   0.54624   0.03470   1.000
    H78     H    0.83242   0.45714   0.12091   1.000
    H79     H    0.79482   0.32876   0.09805   1.000
    H80     H    0.80202   0.25582   0.98375   1.000
    H81     H    0.85207   0.29219   0.87822   1.000
    H82     H    0.15613   0.49017   0.53331   1.000
    H83     H    0.37194   0.42114   0.36109   1.000
    H84     H    0.39573   0.31781   0.27493   1.000
    H85     H    0.31900   0.20845   0.24901   1.000
    H86     H    0.19725   0.17670   0.29968   1.000
    H87     H    0.12158   0.24541   0.39030   1.000
    C88     C    0.56141   0.00867   0.03273   1.000
    C89     C    0.61533   0.96112   0.04562   1.000
    C90     C    0.68749   0.95394   0.00809   1.000
    C91     C    0.72661   0.88705   0.03301   1.000
    C92     C    0.67831   0.84926   0.08870   1.000
    C93     C    0.60760   0.89727   0.09759   1.000
    C94     C    0.69589   0.78059   0.12725   1.000
    C95     C    0.65271   0.74124   0.18280   1.000
    C96     C    0.58104   0.76074   0.21555   1.000
    C97     C    0.53384   0.82469   0.20028   1.000
    C98     C    0.54549   0.88473   0.14786   1.000
    C99     C    0.80432   0.86483   0.00585   1.000
    C100    C    0.98575   0.03429   0.63514   1.000
    C101    C    0.02680   0.00000   0.59773   1.000
    C102    C    0.03208   0.93159   0.64290   1.000
    C103    C    0.06859   0.00546   0.53194   1.000
    C104    C    0.53201   0.25066   0.87054   1.000
    C105    C    0.54961   0.26631   0.78916   1.000
    C106    C    0.62293   0.25195   0.75650   1.000
    C107    C    0.62467   0.27583   0.67906   1.000
    C108    C    0.54973   0.30612   0.66010   1.000
    C109    C    0.50122   0.29907   0.73051   1.000
    C110    C    0.52792   0.33645   0.58875   1.000
    C111    C    0.45599   0.36564   0.56555   1.000
    C112    C    0.38685   0.37094   0.60750   1.000
    C113    C    0.37227   0.34983   0.68395   1.000
    C114    C    0.42295   0.31869   0.73855   1.000
    C115    C    0.69541   0.27091   0.63220   1.000
    C116    C    0.68307   0.21704   0.12701   1.000
    C117    C    0.74753   0.20087   0.17980   1.000
    C118    C    0.75424   0.23680   0.25283   1.000
    C119    C    0.81984   0.20897   0.29206   1.000
    C120    C    0.85738   0.15294   0.24293   1.000
    C121    C    0.81071   0.14731   0.17127   1.000
    C122    C    0.92475   0.11151   0.26053   1.000
    C123    C    0.96427   0.05622   0.21600   1.000
    C124    C    0.94636   0.02683   0.14253   1.000
    C125    C    0.88360   0.04517   0.09490   1.000
    C126    C    0.82370   0.09837   0.10775   1.000
    C127    C    0.84116   0.23523   0.37014   1.000
    C128    C    0.46920   0.13196   0.24719   1.000
    C129    C    0.48478   0.07851   0.31050   1.000
    C130    C    0.44867   0.00564   0.31632   1.000
    C131    C    0.47810   0.98299   0.38064   1.000
    O132    O    0.87810   0.49215   0.58205   1.000
    O133    O    0.78918   0.44339   0.49737   1.000
    O134    O    0.00000   0.81668   0.95953   1.000
    O135    O    0.00000   0.00000   0.94140   1.000
    O136    O    0.07226   0.95975   0.01966   1.000
    C137    C    0.53411   0.01348   0.41800   1.000
    C138    C    0.53935   0.08568   0.37274   1.000
    C139    C    0.57774   0.00000   0.48374   1.000
    C140    C    0.63389   0.03716   0.52240   1.000
    C141    C    0.66355   0.11045   0.50518   1.000
    C142    C    0.64359   0.15958   0.44461   1.000
    C143    C    0.58867   0.14863   0.38610   1.000
    C144    C    0.45198   0.90485   0.40104   1.000
    C145    C    0.43737   0.39943   0.09748   1.000
    C146    C    0.42032   0.48111   0.11490   1.000
    C147    C    0.43504   0.51553   0.18753   1.000
    C148    C    0.40973   0.59306   0.18876   1.000
    C149    C    0.41464   0.64200   0.25837   1.000
    C150    C    0.38627   0.53894   0.06649   1.000
    C151    C    0.36567   0.52929   0.00000   1.000
    C152    C    0.33398   0.58314   0.95325   1.000
    C153    C    0.31261   0.66022   0.96701   1.000
    C154    C    0.31773   0.70369   0.00000   1.000
    C155    C    0.34759   0.68166   0.09182   1.000
    C156    C    0.37856   0.61038   0.11413   1.000
    C157    C    0.57410   0.65995   0.52088   1.000
    C158    C    0.65183   0.63768   0.54757   1.000
    C159    C    0.68906   0.56930   0.52284   1.000
    C160    C    0.76205   0.56225   0.55853   1.000
    C161    C    0.77242   0.62783   0.60908   1.000
    C162    C    0.70204   0.67649   0.60158   1.000
    C163    C    0.83615   0.64109   0.65739   1.000
    C164    C    0.85023   0.70264   0.70862   1.000
    C165    C    0.80416   0.76754   0.72466   1.000
    C166    C    0.73159   0.78670   0.69414   1.000
    C167    C    0.68632   0.74633   0.64015   1.000
    C168    C    0.81295   0.49520   0.54500   1.000
    C169    C    0.05321   0.00000   0.98254   1.000
    C170    C    0.10546   0.05613   0.96900   1.000
    C171    C    0.17759   0.06333   0.00000   1.000
    C172    C    0.21679   0.13012   0.98218   1.000
    C173    C    0.16860   0.16784   0.92636   1.000
    C174    C    0.09786   0.11987   0.91748   1.000
    C175    C    0.18625   0.23645   0.88773   1.000
    C176    C    0.14317   0.27571   0.83199   1.000
    C177    C    0.07158   0.25613   0.79916   1.000
    C178    C    0.02435   0.19221   0.81446   1.000
    C179    C    0.03586   0.13230   0.86705   1.000
    C180    C    0.29450   0.15237   0.00000   1.000
    C181    C    0.00000   0.76693   0.14478   1.000
    C182    C    0.04206   0.75134   0.22618   1.000
    C183    C    0.11538   0.76570   0.25886   1.000
    C184    C    0.11706   0.74187   0.33632   1.000
    C185    C    0.04208   0.71163   0.35523   1.000
    C186    C    0.00000   0.71864   0.28481   1.000
    C187    C    0.02019   0.68133   0.42660   1.000
    C188    C    0.96495   0.65216   0.44973   1.000
    C189    C    0.89585   0.64683   0.40772   1.000
    C190    C    0.88135   0.66789   0.33124   1.000
    C191    C    0.93208   0.69901   0.27669   1.000
    C192    C    0.18777   0.74672   0.38320   1.000
    C193    C    0.17647   0.79982   0.88979   1.000
    C194    C    0.24035   0.81636   0.83643   1.000
    C195    C    0.24680   0.78036   0.76338   1.000
    C196    C    0.31198   0.80851   0.72367   1.000
    C197    C    0.34951   0.86484   0.77249   1.000
    C198    C    0.30330   0.87031   0.84444   1.000
    C199    C    0.41646   0.90670   0.75430   1.000
    C200    C    0.45605   0.96222   0.79851   1.000
    C201    C    0.43869   0.99138   0.87220   1.000
    C202    C    0.37645   0.97264   0.92032   1.000
    C203    C    0.31663   0.91924   0.90790   1.000
    C204    C    0.33311   0.78224   0.64551   1.000
    C205    C    0.97852   0.88503   0.76846   1.000
    C206    C    0.99423   0.93863   0.70510   1.000
    C207    C    0.95807   0.00000   0.69940   1.000
    C208    C    0.12644   0.98011   0.49320   1.000
    C209    C    0.15618   0.90687   0.51045   1.000
    C210    C    0.13632   0.85775   0.57108   1.000
    C211    C    0.08142   0.86867   0.62955   1.000
    C212    C    0.95965   0.11248   0.61471   1.000
    C213    C    0.94822   0.61695   0.91788   1.000
    C214    C    0.93000   0.53549   0.90058   1.000
    C215    C    0.94431   0.50073   0.82809   1.000
    C216    C    0.91754   0.42371   0.82685   1.000
    C217    C    0.92158   0.37450   0.75735   1.000
    C218    C    0.89472   0.47840   0.94902   1.000
    C219    C    0.87503   0.48862   0.01123   1.000
    C220    C    0.84209   0.43550   0.06211   1.000
    C221    C    0.81962   0.35870   0.04848   1.000
    C222    C    0.82453   0.31491   0.98025   1.000
    C223    C    0.85384   0.33629   0.92387   1.000
    C224    C    0.88588   0.40705   0.90145   1.000
    C225    C    0.06538   0.35763   0.49475   1.000
    C226    C    0.14311   0.37991   0.46800   1.000
    C227    C    0.18039   0.44831   0.49273   1.000
    C228    C    0.25340   0.45528   0.45703   1.000
    C229    C    0.26370   0.38962   0.40650   1.000
    C230    C    0.19328   0.34102   0.41410   1.000
    C231    C    0.32741   0.37620   0.35828   1.000
    C232    C    0.34139   0.31455   0.30714   1.000
    C233    C    0.29521   0.24972   0.29112   1.000
    C234    C    0.22260   0.23069   0.32163   1.000
    C235    C    0.17743   0.27117   0.37559   1.000
    C236    C    0.30442   0.52229   0.47004   1.000
    O237    O    0.49192   0.20017   0.05491   1.000
    O238    O    0.49908   0.01362   0.07388   1.000
    O239    O    0.57937   0.05762   0.99567   1.000
    O240    O    0.84050   0.91588   0.98148   1.000
    O241    O    0.83075   0.79748   0.02295   1.000
    O242    O    0.58732   0.22051   0.91024   1.000
    O243    O    0.46445   0.26806   0.89696   1.000
    O244    O    0.75111   0.23040   0.66004   1.000
    O245    O    0.69807   0.30623   0.56690   1.000
    O246    O    0.67968   0.17988   0.06192   1.000
    O247    O    0.63379   0.26850   0.14879   1.000
    O248    O    0.90488   0.21076   0.39980   1.000
    O249    O    0.79305   0.28171   0.40372   1.000
    O250    O    0.50772   0.19594   0.24365   1.000
    O251    O    0.41692   0.11191   0.19771   1.000
    O252    O    0.47495   0.87538   0.46496   1.000
    O253    O    0.40695   0.87105   0.35179   1.000
    O254    O    0.46800   0.35994   0.15255   1.000
    O255    O    0.42061   0.37229   0.03006   1.000
    O256    O    0.45805   0.61734   0.31321   1.000
    O257    O    0.37625   0.70619   0.26100   1.000
    O258    O    0.38079   0.71286   0.45110   1.000
    O259    O    0.54655   0.72606   0.54216   1.000
    O260    O    0.53889   0.61044   0.47731   1.000
    O261    O    0.33165   0.10137   0.03394   1.000
    O262    O    0.32101   0.21962   0.99212   1.000
    O263    O    0.07988   0.79703   0.10512   1.000
    O264    O    0.97370   0.74954   0.11832   1.000
    O265    O    0.24369   0.78687   0.35522   1.000
    O266    O    0.19020   0.71172   0.44866   1.000
    O267    O    0.17261   0.83784   0.95432   1.000
    O268    O    0.12798   0.74703   0.86918   1.000
    O269    O    0.39677   0.80675   0.61572   1.000
    O270    O    0.28499   0.73574   0.61199   1.000
    O271    O    0.00000   0.82105   0.77221   1.000
    O272    O    0.92592   0.90521   0.81756   1.000
    O273    O    0.98278   0.14207   0.55090   1.000
    O274    O    0.91445   0.14626   0.66382   1.000
    O275    O    0.97972   0.65547   0.86259   1.000
    O276    O    0.93165   0.64483   0.98504   1.000
    O277    O    0.96610   0.39762   0.70270   1.000
    O278    O    0.88125   0.31152   0.75457   1.000
    O279    O    0.88871   0.30453   0.56448   1.000
    O280    O    0.03778   0.29153   0.47340   1.000
    O281    O    0.03019   0.40715   0.53832   1.000
    O282    O    0.36963   0.52525   0.43360   1.000
    O283    O    0.28063   0.57418   0.51808   1.000
loop_
    _geom_bond_atom_site_label_1
    _geom_bond_atom_site_label_2
    _geom_bond_distance
    _geom_bond_site_symmetry_2
    _ccdc_geom_bond_type
    Zn0    O237      1.93154      .   S
    Zn0    O246      1.94454      .   S
    Zn0    O242      1.76691  1_554   S
    Zn0    O239      1.98185  1_554   S
    C180   O261      1.23932      .   S
    C180   C172      1.42517  1_554   S
    C180   O262      1.25437  1_554   S
    C171   H52       0.99719      .   S
    C171   C170      1.35826  1_554   S
    C171   C172      1.37217  1_554   S
    C154   H44       1.08989      .   S
    C154   C155      1.71492      .   S
    C154   C153      0.94139  1_554   S
    C151   C150      1.21315      .   S
    C151   C152      1.35178  1_554   S
    C151   H41       1.06617  1_554   S
    Zn1    O255      1.92135      .   S
    Zn1    O237      1.85688      .   S
    Zn1    O243      1.90160  1_554   S
    Zn1    O262      1.97465  1_554   S
    Zn8    O136      1.99731      .   S
    Zn8    O263      1.95104      .   S
    Zn8    O267      1.83093  1_554   S
    Zn8    O134      1.62570  1_554   S
    C99    O241      1.28398      .   S
    C99    C91       1.46823      .   S
    C99    O240      1.16063  1_554   S
    C90    C91       1.40633      .   S
    C90    C89       1.40698      .   S
    C90    H15       0.92082  1_554   S
    Zn9    O241      1.98146      .   S
    Zn9    O264      1.97975      .   S
    Zn9    O134      1.79478  1_654   S
    Zn9    O276      1.90619  1_554   S
    C219   H77       1.09046      .   S
    C219   C220      1.39632      .   S
    C219   C218      1.14001  1_554   S
    O136   C169      1.00468  1_564   S
    O255   C145      1.28484      .   S
    C88    C89       1.25986  1_545   S
    C88    O238      1.29028      .   S
    C88    O239      1.10833  1_554   S
    C91    C92       1.43370      .   S
    O261   Zn32      1.95834      .   S
    H31    C125      1.09047      .   S
    C89    C93       1.43357      .   S
    C221   C220      1.39679      .   S
    C221   H79       1.09174      .   S
    C221   C222      1.39704  1_554   S
    O246   C116      1.29093      .   S
    C220   H78       1.09246      .   S
    H33    C126      1.09061      .   S
    C150   C156      1.48072      .   S
    C150   C146      1.43321      .   S
    O238   Zn32      1.97879      .   S
    Zn32   O251      1.98275      .   S
    C92    C93       1.47959      .   S
    C92    C94       1.39709      .   S
    C155   C156      1.39703      .   S
    C155   H45       1.09096      .   S
    C125   C126      1.39656      .   S
    C125   C124      1.39709      .   S
    C145   C146      1.46640      .   S
    C145   O254      1.28873      .   S
    C93    C98       1.39648      .   S
    O263   C181      1.62459      .   S
    C126   C121      1.39648      .   S
    H16    C94       1.09044      .   S
    C156   C148      1.43186      .   S
    C146   C147      1.40686      .   S
    O264   C181      0.70828  1_655   S
    H30    C124      0.93835      .   S
    C116   O247      1.28156      .   S
    C116   C117      1.46571      .   S
    C94    C95       1.39579      .   S
    C124   C123      1.39761      .   S
    C181   C182      1.60798      .   S
    H20    C98       1.09051      .   S
    C98    C97       1.39669      .   S
    O247   Zn2       1.98444      .   S
    Zn2    O254      1.95549      .   S
    Zn2    O250      1.97811      .   S
    C121   C117      1.43371      .   S
    C121   C120      1.47948      .   S
    C117   C118      1.40587      .   S
    C95    H17       1.09288      .   S
    C95    C96       1.39781      .   S
    C147   C148      1.40536      .   S
    C147   H40       1.08505      .   S
    C148   C149      1.46563      .   S
    O251   C128      1.28705      .   S
    C97    C96       1.39666      .   S
    C97    H19       1.09061      .   S
    C96    H18       1.09255      .   S
    C123   H29       0.87364  1_655   S
    C123   C122      1.39665      .   S
    H63    C191      1.09093      .   S
    C182   C183      1.40446      .   S
    C182   C186      1.37162      .   S
    H58    C183      1.08511      .   S
    C120   C122      1.39733      .   S
    C120   C119      1.43405      .   S
    O250   C128      1.28883      .   S
    C128   C129      1.46235      .   S
    H85    C233      1.09269      .   S
    C118   H27       1.08484      .   S
    C118   C119      1.40478      .   S
    C149   O257      1.28929      .   S
    C149   O256      1.28319      .   S
    C183   C184      1.40503      .   S
    C122   H28       1.09041      .   S
    O257   Zn4       1.98195      .   S
    H84    C232      1.09092      .   S
    H34    C130      1.01218      .   S
    C191   C186      1.22545  1_655   S
    C191   C190      1.39669      .   S
    C186   C185      1.42324      .   S
    C233   C232      1.39711      .   S
    C233   C234      1.39755      .   S
    C119   C127      1.46661      .   S
    H86    C234      1.09256      .   S
    C232   C231      1.39664      .   S
    C129   C130      1.40595      .   S
    C129   C138      1.43332      .   S
    H62    C190      1.09271      .   S
    O256   Zn3       1.98476      .   S
    C130   C131      1.28632  1_545   S
    C234   C235      1.39655      .   S
    C190   C189      1.39725      .   S
    C184   C185      1.43164      .   S
    C184   C192      1.46495      .   S
    H39    C143      1.08994      .   S
    O253   Zn4       1.95908      .   S
    O253   C144      1.28713      .   S
    O265   Zn4       1.97112      .   S
    O265   C192      1.28344      .   S
    C185   C187      1.39649      .   S
    C231   H83       1.09082      .   S
    C231   C229      1.39627      .   S
    C127   O248      1.28447      .   S
    C127   O249      1.28701      .   S
    C138   C143      1.39543      .   S
    C138   C137      1.47898      .   S
    C235   H87       1.09058      .   S
    C235   C230      1.39712      .   S
    C131   C144      1.46612      .   S
    C131   C137      1.27188  1_565   S
    C192   O266      1.28833      .   S
    C143   C142      1.39655      .   S
    O248   Zn14      1.97599      .   S
    C144   O252      1.28340      .   S
    O249   Zn5       1.96480      .   S
    C229   C230      1.48044      .   S
    C229   C228      1.43407      .   S
    C189   H61       1.09236      .   S
    C189   C188      1.39701      .   S
    C230   C226      1.43271      .   S
    C137   C139      1.38425      .   S
    Zn3    O282      1.97437      .   S
    Zn3    O260      1.95623      .   S
    C187   C188      1.14971  1_455   S
    C187   H59       1.09097      .   S
    O282   C236      1.28909      .   S
    H38    C142      1.08954      .   S
    H72    C208      1.03884  1_545   S
    C142   C141      1.39615      .   S
    O266   Zn13      1.97913      .   S
    C188   H60       1.09199      .   S
    O258   Zn13      1.96400      .   S
    O258   Zn6       1.95898      .   S
    C228   C236      1.46689      .   S
    C228   C227      1.40653      .   S
    O252   Zn6       1.98111      .   S
    C226   C227      1.40524      .   S
    C226   C225      1.46883      .   S
    C236   O283      1.28200      .   S
    H73    C209      1.09247      .   S
    O280   C225      1.28514      .   S
    O280   Zn14      1.72920  1_455   S
    O260   C157      1.28496      .   S
    H46    C159      1.08533      .   S
    C139   H35       0.91120  1_545   S
    C139   C140      1.33570      .   S
    C227   H82       1.08533      .   S
    C208   C209      1.39707      .   S
    C208   C103      1.27550  1_565   S
    C225   O281      1.28498      .   S
    O133   Zn5       1.97790      .   S
    O133   C168      1.27627      .   S
    Zn14   O273      1.98246      .   S
    Zn14   O279      1.95857      .   S
    C141   C140      1.39713      .   S
    C141   H37       1.09257      .   S
    H23    C111      1.09337      .   S
    Zn5    O279      1.96388      .   S
    Zn5    O245      1.97947      .   S
    H71    C103      1.09178      .   S
    Zn13   O283      1.97741      .   S
    Zn13   O270      1.96673      .   S
    C209   C210      1.39630      .   S
    Zn6    O259      1.97089      .   S
    Zn6    O269      1.97616      .   S
    C157   O259      1.28478      .   S
    C157   C158      1.46844      .   S
    C140   H36       1.09261      .   S
    C159   C158      1.40459      .   S
    C159   C160      1.40631      .   S
    C103   C101      1.35027      .   S
    O281   Zn11      1.70477  1_455   S
    C168   C160      1.46752      .   S
    C168   O132      1.29350      .   S
    H22    C110      1.09100      .   S
    C158   C162      1.43375      .   S
    O273   C212      1.28337      .   S
    C160   C161      1.43335      .   S
    C111   C110      1.39730      .   S
    C111   C112      1.39705      .   S
    O245   C115      1.28876      .   S
    C210   H74       1.08941      .   S
    C210   C211      1.39575      .   S
    H24    C112      1.09237      .   S
    O132   Zn11      1.97202      .   S
    C110   C108      1.39608      .   S
    Zn11   O277      1.98927      .   S
    C101   C100      1.12260  1_455   S
    C101   C102      1.42335  1_545   S
    C162   C161      1.48039      .   S
    C162   C167      1.39701      .   S
    C112   C113      1.39719      .   S
    C161   C163      1.39696      .   S
    O270   C204      1.28702      .   S
    C212   C100      1.46691      .   S
    C212   O274      1.28718      .   S
    O269   C204      1.28454      .   S
    H51    C167      1.09058      .   S
    C211   C102      1.39524      .   S
    C211   H75       1.09043      .   S
    C115   O244      1.28302      .   S
    C115   C107      1.46520      .   S
    C100   C207      1.35049      .   S
    C167   C166      1.39681      .   S
    C102   C206      1.26254  1_455   S
    C204   C196      1.46711      .   S
    H47    C163      1.09077      .   S
    C163   C164      1.39667      .   S
    Zn12   O244      1.97281      .   S
    Zn12   O274      1.95907      .   S
    Zn12   O278      1.98114      .   S
    C108   C107      1.43162      .   S
    C108   C109      1.48258      .   S
    C107   C106      1.40499      .   S
    C113   H25       1.09269      .   S
    C113   C114      1.39680      .   S
    C166   H50       1.09257      .   S
    C166   C165      1.39759      .   S
    H65    C199      1.09012      .   S
    C207   C206      1.23218  1_545   S
    C207   H70       1.06508      .   S
    O277   C217      1.28334      .   S
    C206   C205      1.46502      .   S
    C164   C165      1.39708      .   S
    C164   H48       1.09100      .   S
    C196   C195      1.40485      .   S
    C196   C197      1.43426      .   S
    C165   H49       1.09279      .   S
    C109   C114      1.39652      .   S
    C109   C105      1.43277      .   S
    C114   H26       1.09083      .   S
    H64    C195      1.08535      .   S
    C199   C197      1.39757      .   S
    C199   C200      1.39683      .   S
    O278   C217      1.28914      .   S
    H55    C177      1.09264      .   S
    C106   H21       1.08501      .   S
    C106   C105      1.40455      .   S
    C217   C216      1.46586      .   S
    C195   C194      1.40639      .   S
    C205   O271      1.16546  1_655   S
    C205   O272      1.28721      .   S
    H66    C200      1.09262      .   S
    O271   Zn10      1.98889      .   S
    C197   C198      1.47923      .   S
    H76    C215      1.08508      .   S
    H56    C178      0.86238  1_655   S
    C105   C104      1.46701      .   S
    C200   C201      1.39763      .   S
    C177   C178      1.39665      .   S
    C177   C176      1.39747      .   S
    H54    C176      1.09265      .   S
    C178   C179      1.39660      .   S
    O272   Zn7       1.98168      .   S
    C216   C215      1.40522      .   S
    C216   C224      1.43208      .   S
    C215   C214      1.40587      .   S
    C176   C175      1.39634      .   S
    C194   C198      1.43412      .   S
    C194   C193      1.46580      .   S
    C198   C203      1.39651      .   S
    O275   Zn10      1.84364  1_655   S
    O275   C213      1.28885      .   S
    Zn10   O268      1.98172      .   S
    C179   H57       0.98114      .   S
    C179   C174      1.39651      .   S
    O268   C193      1.28300      .   S
    C104   O243      1.28456      .   S
    C104   O242      1.28665      .   S
    C201   H67       0.90352  1_565   S
    C201   C202      1.39680      .   S
    H81    C223      1.09094      .   S
    C175   H53       1.09045      .   S
    C175   C173      1.39710      .   S
    C193   O267      1.29035      .   S
    H42    C152      1.09245      .   S
    C214   C213      1.46658      .   S
    C214   C218      1.43348      .   S
    C224   C223      1.39684      .   S
    C224   C218      1.48067      .   S
    C203   C202      1.39667      .   S
    C203   H69       1.09070      .   S
    H43    C153      1.09285      .   S
    C174   C173      1.47956      .   S
    C174   C170      1.42693      .   S
    C213   O276      1.28467      .   S
    C202   H68       1.05575  1_565   S
    C223   C222      1.16101      .   S
    C173   C172      1.43362      .   S
    Zn7    O135      1.85708  1_665   S
    Zn7    O240      1.95962      .   S
    O135   C169      1.16017      .   S
    C152   C153      1.39659      .   S
    C170   C169      1.34345      .   S
    C222   H80       1.09194      .   S
    O237   Zn32      1.96246      .   S
    O237   Zn2       1.96235      .   S
    O258   Zn3       1.96641      .   S
    O258   Zn4       1.96834      .   S
    O134   Zn7       1.95257  1_455   S
    O134   Zn10      1.91764      .   S
    O279   Zn11      1.96710      .   S
    O279   Zn12      1.96801      .   S
