# CIF file generated by openbabel 2.4.90, see http://openbabel.sf.net
data_I
_chemical_name_common ''
_cell_length_a 17.224
_cell_length_b 17.234
_cell_length_c 17.292
_cell_angle_alpha 90.548
_cell_angle_beta 90
_cell_angle_gamma 90
_space_group_name_H-M_alt 'P 1'
_space_group_name_Hall 'P 1'
loop_
    _symmetry_equiv_pos_as_xyz
    x,y,z
loop_
    _atom_site_label
    _atom_site_type_symbol
    _atom_site_fract_x
    _atom_site_fract_y
    _atom_site_fract_z
    _atom_site_occupancy
    N0      N    0.54166   0.05541   0.39703   1.000
    N1      N    0.64176   0.86879   0.09971   1.000
    N2      N    0.83546   0.14689   0.20585   1.000
    N3      N    0.02071   0.71310   0.32205   1.000
    N4      N    0.52231   0.30459   0.69325   1.000
    N5      N    0.32860   0.87047   0.80974   1.000
    N6      N    0.73820   0.65407   0.60979   1.000
    N7      N    0.88892   0.44045   0.92305   1.000
    N8      N    0.22943   0.36337   0.40585   1.000
    N9      N    0.38074   0.57696   0.08921   1.000
    N10     N    0.13403   0.14775   0.91455   1.000
    N11     N    0.04057   0.96019   0.61863   1.000
    Zr12    Zr   0.88955   0.30447   0.56394   1.000
    Zr13    Zr   0.49122   0.20066   0.05765   1.000
    Zr14    Zr   0.99404   0.81618   0.95410   1.000
    Zr15    Zr   0.38165   0.71292   0.45163   1.000
    O16     O    0.84224   0.41982   0.57044   1.000
    O17     O    0.00022   0.32677   0.51466   1.000
    O18     O    0.89560   0.34720   0.68190   1.000
    O19     O    0.86906   0.25532   0.44652   1.000
    O20     O    0.76953   0.29801   0.60492   1.000
    O21     O    0.93723   0.19082   0.58494   1.000
    O22     O    0.10371   0.82489   0.91031   1.000
    O23     O    0.96055   0.69382   0.94057   1.000
    O24     O    0.03635   0.92717   0.94915   1.000
    O25     O    0.87930   0.83626   0.99858   1.000
    O26     O    0.00646   0.78288   0.07238   1.000
    O27     O    0.99976   0.86019   0.84340   1.000
    O28     O    0.49834   0.15629   0.17025   1.000
    O29     O    0.37362   0.18059   0.01436   1.000
    O30     O    0.45540   0.32305   0.07185   1.000
    O31     O    0.53714   0.08946   0.06336   1.000
    O32     O    0.60561   0.19201   0.10277   1.000
    O33     O    0.50516   0.23434   0.94009   1.000
    O34     O    0.49855   0.69065   0.50094   1.000
    O35     O    0.36139   0.76208   0.56907   1.000
    O36     O    0.33403   0.59760   0.44515   1.000
    O37     O    0.43163   0.82612   0.43067   1.000
    O38     O    0.38782   0.67005   0.33286   1.000
    O39     O    0.26326   0.71949   0.41055   1.000
loop_
    _geom_bond_atom_site_label_1
    _geom_bond_atom_site_label_2
    _geom_bond_distance
    _geom_bond_site_symmetry_2
    _ccdc_geom_bond_type
    Zr12   O16       2.15044      .   S
    N6     O16       4.46304      .   S
    Zr12   O17       2.12453  1_655   S
    N8     O17       4.42129      .   S
    Zr12   O18       2.16448      .   S
    N7     O18       4.45616      .   S
    Zr12   O19       2.22079      .   S
    N2     O19       4.58234      .   S
    Zr12   O20       2.18848      .   S
    N4     O20       4.52476      .   S
    Zr12   O21       2.15784      .   S
    N11    O21       4.39893  1_465   S
    Zr14   O22       2.04110  1_655   S
    N5     O22       4.32105      .   S
    Zr14   O23       2.19650      .   S
    N7     O23       4.54485      .   S
    Zr14   O24       2.04951  1_655   S
    N10    O24       4.20515  1_545   S
    Zr14   O25       2.14762      .   S
    N1     O25       4.48254  1_554   S
    Zr14   O26       2.14032  1_656   S
    N3     O26       4.49944      .   S
    Zr14   O27       2.06804      .   S
    N11    O27       4.32420  1_455   S
    Zr13   O28       2.10222      .   S
    N0     O28       4.36894      .   S
    Zr13   O29       2.18572      .   S
    N10    O29       4.50668  1_556   S
    Zr13   O30       2.20905      .   S
    N9     O30       4.56815      .   S
    Zr13   O31       2.07644      .   S
    N1     O31       4.26040  1_565   S
    Zr13   O32       2.12495      .   S
    N2     O32       4.41380      .   S
    Zr13   O33       2.13300  1_554   S
    N4     O33       4.45759      .   S
    N6     O34       4.58270      .   S
    Zr15   O34       2.22135      .   S
    N5     O35       4.58042      .   S
    Zr15   O35       2.22047      .   S
    N8     O36       4.46644      .   S
    Zr15   O36       2.15204      .   S
    N0     O37       4.42600  1_545   S
    Zr15   O37       2.16604      .   S
    Zr15   O38       2.17848      .   S
    N9     O38       4.49571      .   S
    Zr15   O39       2.16278      .   S
    N3     O39       4.45016      .   S
