# CIF file generated by openbabel 2.4.90, see http://openbabel.sf.net
data_I
_chemical_name_common ''
_cell_length_a 17.224
_cell_length_b 17.234
_cell_length_c 17.292
_cell_angle_alpha 90.548
_cell_angle_beta 90
_cell_angle_gamma 90
_space_group_name_H-M_alt 'P 1'
_space_group_name_Hall 'P 1'
loop_
    _symmetry_equiv_pos_as_xyz
    x,y,z
loop_
    _atom_site_label
    _atom_site_type_symbol
    _atom_site_fract_x
    _atom_site_fract_y
    _atom_site_fract_z
    _atom_site_occupancy
    Zr0     Zr   0.43336   0.10732   0.08427   1.000
    Zr1     Zr   0.58569   0.17240   0.00000   1.000
    Zr2     Zr   0.42610   0.26481   0.00000   1.000
    Zr3     Zr   0.51901   0.25859   0.14906   1.000
    Zr4     Zr   0.43781   0.61697   0.42620   1.000
    Zr5     Zr   0.35675   0.76915   0.35553   1.000
    Zr6     Zr   0.79340   0.32925   0.50745   1.000
    Zr7     Zr   0.44750   0.77733   0.51722   1.000
    Zr8     Zr   0.94218   0.90955   0.93097   1.000
    Zr9     Zr   0.07866   0.84503   0.00340   1.000
    Zr10    Zr   0.93597   0.75266   0.01025   1.000
    Zr11    Zr   0.01339   0.75698   0.86633   1.000
    Zr12    Zr   0.94591   0.40032   0.58949   1.000
    Zr13    Zr   0.86426   0.24816   0.65988   1.000
    Zr14    Zr   0.28542   0.68829   0.50810   1.000
    Zr15    Zr   0.95546   0.24011   0.49839   1.000
    Zr16    Zr   0.49192   0.20017   0.05491   1.000
    Zr17    Zr   0.38079   0.71286   0.45110   1.000
    Zr18    Zr   0.00000   0.81668   0.95953   1.000
    Zr19    Zr   0.88871   0.30453   0.56448   1.000
    O20     O    0.53881   0.18629   0.02746   1.000
    O21     O    0.45901   0.23249   0.02746   1.000
    O22     O    0.03933   0.83086   0.98147   1.000
    O23     O    0.96798   0.78467   0.98489   1.000
    O24     O    0.33311   0.70057   0.47960   1.000
    O25     O    0.41415   0.74509   0.48416   1.000
    O26     O    0.92208   0.27232   0.53144   1.000
    O27     O    0.84106   0.31689   0.53597   1.000
    O28     O    0.46264   0.15374   0.06959   1.000
    O29     O    0.50546   0.22938   0.10199   1.000
    O30     O    0.40930   0.66492   0.43865   1.000
    O31     O    0.36877   0.74100   0.40332   1.000
    O32     O    0.97109   0.86311   0.94525   1.000
    O33     O    0.00669   0.78683   0.91293   1.000
    O34     O    0.91731   0.35243   0.57699   1.000
    O35     O    0.87649   0.27634   0.61218   1.000
    N36     N    0.54166   0.05541   0.39703   1.000
    O37     O    0.52751   0.14134   0.29669   1.000
    O38     O    0.48340   0.08251   0.26901   1.000
    O39     O    0.50144   0.94088   0.44406   1.000
    O40     O    0.46175   0.93775   0.37534   1.000
    N41     N    0.64176   0.86879   0.09971   1.000
    O42     O    0.55399   0.96463   0.08939   1.000
    O43     O    0.61214   0.99190   0.04877   1.000
    O44     O    0.76655   0.89075   0.02797   1.000
    O45     O    0.76256   0.82193   0.05815   1.000
    N46     N    0.83546   0.14689   0.20585   1.000
    O47     O    0.73407   0.16151   0.11840   1.000
    O48     O    0.70593   0.20522   0.17739   1.000
    O49     O    0.88282   0.18616   0.32747   1.000
    O50     O    0.81434   0.22618   0.33072   1.000
    N51     N    0.02071   0.71310   0.32205   1.000
    O52     O    0.04999   0.76707   0.18815   1.000
    O53     O    0.98777   0.73210   0.19317   1.000
    O54     O    0.16046   0.74556   0.33871   1.000
    O55     O    0.12926   0.70655   0.40021   1.000
    N56     N    0.52231   0.30459   0.69325   1.000
    O57     O    0.63402   0.31117   0.61521   1.000
    O58     O    0.55441   0.25052   0.82419   1.000
    O59     O    0.48379   0.28551   0.82087   1.000
    O60     O    0.66500   0.27194   0.67661   1.000
    N61     N    0.32860   0.87047   0.80974   1.000
    O62     O    0.22712   0.85596   0.89430   1.000
    O63     O    0.19964   0.81124   0.83875   1.000
    O64     O    0.37537   0.83126   0.68811   1.000
    O65     O    0.30690   0.79124   0.68489   1.000
    N66     N    0.73820   0.65407   0.60979   1.000
    O67     O    0.82510   0.55015   0.59778   1.000
    O68     O    0.61761   0.70288   0.56974   1.000
    O69     O    0.61327   0.63389   0.53077   1.000
    O70     O    0.76475   0.52020   0.55610   1.000
    N71     N    0.88892   0.44045   0.92305   1.000
    O72     O    0.88084   0.36015   0.81514   1.000
    O73     O    0.94274   0.57334   0.89376   1.000
    O74     O    0.91137   0.56960   0.96035   1.000
    O75     O    0.92246   0.41971   0.78457   1.000
    N76     N    0.22943   0.36337   0.40585   1.000
    O77     O    0.11303   0.31460   0.44587   1.000
    O78     O    0.10874   0.38355   0.48488   1.000
    O79     O    0.31658   0.46724   0.41787   1.000
    O80     O    0.25623   0.49730   0.45947   1.000
    N81     N    0.38074   0.57696   0.08921   1.000
    O82     O    0.43712   0.44312   0.12001   1.000
    O83     O    0.40205   0.44776   0.05212   1.000
    O84     O    0.41433   0.59706   0.22946   1.000
    O85     O    0.37362   0.65732   0.19874   1.000
    N86     N    0.13403   0.14775   0.91455   1.000
    O87     O    0.05256   0.05126   0.92537   1.000
    O88     O    0.10475   0.02507   0.96304   1.000
    O89     O    0.25827   0.12605   0.98683   1.000
    O90     O    0.25379   0.19498   0.95530   1.000
    N91     N    0.04057   0.96019   0.61863   1.000
    O92     O    0.02363   0.87460   0.71895   1.000
    O93     O    0.98731   0.93378   0.74645   1.000
    O94     O    0.00484   0.07564   0.57164   1.000
    O95     O    0.96496   0.07870   0.64024   1.000
loop_
    _geom_bond_atom_site_label_1
    _geom_bond_atom_site_label_2
    _geom_bond_distance
    _geom_bond_site_symmetry_2
    _ccdc_geom_bond_type
    Zr1    O20       0.96577      .   S
    Zr16   O20       0.96577      .   S
    Zr2    O21       0.92844      .   S
    Zr16   O21       0.92844      .   S
    Zr9    O22       0.81285  1_554   S
    Zr18   O22       0.81285      .   S
    Zr10   O23       0.89739  1_554   S
    Zr18   O23       0.89739  1_455   S
    Zr17   O24       0.98200      .   S
    Zr14   O24       0.98200      .   S
    Zr17   O25       0.97949      .   S
    Zr7    O25       0.97949      .   S
    Zr15   O26       0.97928      .   S
    Zr19   O26       0.97928      .   S
    Zr6    O27       0.98194      .   S
    Zr19   O27       0.98194      .   S
    Zr16   O28       0.98123      .   S
    Zr0    O28       0.98123      .   S
    Zr16   O29       0.98117      .   S
    Zr3    O29       0.98117      .   S
    Zr17   O30       0.98321      .   S
    Zr4    O30       0.98321      .   S
    Zr17   O31       0.98417      .   S
    Zr5    O31       0.98417      .   S
    Zr18   O32       0.97628  1_455   S
    Zr8    O32       0.97628      .   S
    Zr18   O33       0.95882      .   S
    Zr11   O33       0.95882      .   S
    Zr19   O34       0.98355      .   S
    Zr12   O34       0.98355      .   S
    Zr19   O35       0.98400      .   S
    Zr13   O35       0.98400      .   S
    N36    O37       2.30473      .   S
    Zr3    O37       3.27424      .   S
    N36    O38       2.47897      .   S
    Zr0    O38       3.34015      .   S
    N36    O39       2.25118  1_545   S
    Zr7    O39       3.23681      .   S
    N36    O40       2.47624  1_545   S
    Zr5    O40       3.43698      .   S
    N41    O42       2.24744      .   S
    Zr0    O42       3.22121  1_545   S
    N41    O43       2.36078      .   S
    Zr1    O43       3.26280  1_545   S
    N41    O44       2.51223      .   S
    Zr8    O44       3.47560  1_556   S
    N41    O45       2.34235      .   S
    Zr10   O45       3.31868      .   S
    N46    O47       2.32522      .   S
    Zr1    O47       3.28119      .   S
    N46    O48       2.49793      .   S
    Zr3    O48       3.38530      .   S
    N46    O49       2.34931      .   S
    Zr15   O49       3.33354      .   S
    N46    O50       2.57016      .   S
    Zr6    O50       3.53849      .   S
    N51    O52       2.55367      .   S
    Zr9    O52       3.51257      .   S
    N51    O53       2.32589  1_455   S
    Zr10   O53       3.30872      .   S
    N51    O54       2.48743      .   S
    Zr5    O54       3.41725      .   S
    N51    O55       2.31050      .   S
    Zr14   O55       3.29015      .   S
    N56    O57       2.35350      .   S
    Zr6    O57       3.33413      .   S
    N56    O58       2.51802      .   S
    Zr1    O58       3.37994  1_554   S
    N56    O59       2.33059      .   S
    Zr2    O59       3.27581  1_554   S
    N56    O60       2.53703      .   S
    Zr13   O60       3.46823      .   S
    N61    O62       2.29407      .   S
    Zr9    O62       3.18427  1_554   S
    N61    O63       2.49743      .   S
    Zr11   O63       3.37664      .   S
    N61    O64       2.34574      .   S
    Zr7    O64       3.32967      .   S
    N61    O65       2.57070      .   S
    Zr14   O65       3.53941      .   S
    N66    O67       2.34174      .   S
    Zr12   O67       3.31822      .   S
    N66    O68       2.34783      .   S
    Zr7    O68       3.32837      .   S
    N66    O69       2.57076      .   S
    Zr4    O69       3.53251      .   S
    N66    O70       2.52053      .   S
    Zr6    O70       3.42456      .   S
    N71    O72       2.31681      .   S
    Zr13   O72       3.30381      .   S
    N71    O73       2.52642      .   S
    Zr11   O73       3.42796  1_455   S
    N71    O74       2.34343      .   S
    Zr10   O74       3.29019  1_554   S
    N71    O75       2.48580      .   S
    Zr12   O75       3.41072      .   S
    N76    O77       2.28403      .   S
    Zr15   O77       3.14019  1_655   S
    N76    O78       2.51016      .   S
    Zr12   O78       3.34845  1_655   S
    N76    O79       2.34377      .   S
    Zr4    O79       3.32152      .   S
    N76    O80       2.52180      .   S
    Zr14   O80       3.42644      .   S
    N81    O82       2.56347      .   S
    Zr3    O82       3.51921      .   S
    N81    O83       2.34032      .   S
    Zr2    O83       3.29699      .   S
    N81    O84       2.51401      .   S
    Zr4    O84       3.43995      .   S
    N81    O85       2.33874      .   S
    Zr5    O85       3.32417      .   S
    N86    O87       2.18522      .   S
    Zr8    O87       3.09727  1_665   S
    N86    O88       2.33700      .   S
    Zr9    O88       3.21833  1_564   S
    N86    O89       2.50796      .   S
    Zr0    O89       3.47110  1_554   S
    N86    O90       2.32453      .   S
    Zr2    O90       3.29175  1_554   S
    N91    O92       2.30629      .   S
    Zr11   O92       3.27626      .   S
    N91    O93       2.43984  1_455   S
    Zr8    O93       3.31437      .   S
    N91    O94       2.24247  1_565   S
    Zr15   O94       3.22969  1_655   S
    N91    O95       2.44793  1_465   S
    Zr13   O95       3.41083      .   S
