# CIF file generated by openbabel 2.4.90, see http://openbabel.sf.net
data_I
_chemical_name_common ''
_cell_length_a 17.224
_cell_length_b 17.234
_cell_length_c 17.292
_cell_angle_alpha 90.548
_cell_angle_beta 90
_cell_angle_gamma 90
_space_group_name_H-M_alt 'P 1'
_space_group_name_Hall 'P 1'
loop_
    _symmetry_equiv_pos_as_xyz
    x,y,z
loop_
    _atom_site_label
    _atom_site_type_symbol
    _atom_site_fract_x
    _atom_site_fract_y
    _atom_site_fract_z
    _atom_site_occupancy
    N0      N    0.54166   0.05541   0.39703   1.000
    N1      N    0.64176   0.86879   0.09971   1.000
    N2      N    0.83546   0.14689   0.20585   1.000
    N3      N    0.02071   0.71310   0.32205   1.000
    N4      N    0.52231   0.30459   0.69325   1.000
    N5      N    0.32860   0.87047   0.80974   1.000
    N6      N    0.73820   0.65407   0.60979   1.000
    N7      N    0.88892   0.44045   0.92305   1.000
    N8      N    0.22943   0.36337   0.40585   1.000
    N9      N    0.38074   0.57696   0.08921   1.000
    N10     N    0.13403   0.14775   0.91455   1.000
    N11     N    0.04057   0.96019   0.61863   1.000
    Zr12    Zr   0.88955   0.30447   0.56394   1.000
    O13     O    0.85733   0.42731   0.58086   1.000
    O14     O    0.99914   0.34401   0.52441   1.000
    O15     O    0.90601   0.36209   0.67426   1.000
    O16     O    0.94720   0.19006   0.56779   1.000
    O17     O    0.88618   0.24532   0.44570   1.000
    O18     O    0.00129   0.30954   0.50490   1.000
    O19     O    0.92726   0.19159   0.60209   1.000
    O20     O    0.88519   0.33231   0.68954   1.000
    O21     O    0.77727   0.28820   0.62027   1.000
    O22     O    0.82715   0.41234   0.56002   1.000
    O23     O    0.85195   0.26533   0.44733   1.000
    O24     O    0.76179   0.30782   0.58958   1.000
    Zr25    Zr   0.49122   0.20066   0.05765   1.000
    O26     O    0.48731   0.14159   0.16333   1.000
    O27     O    0.37474   0.16335   0.02224   1.000
    O28     O    0.52260   0.08264   0.07352   1.000
    O29     O    0.55168   0.09628   0.05321   1.000
    O30     O    0.61264   0.18109   0.08803   1.000
    O31     O    0.52281   0.22559   0.94092   1.000
    O32     O    0.44663   0.32421   0.05488   1.000
    O33     O    0.37250   0.19782   0.00648   1.000
    O34     O    0.48750   0.24309   0.93926   1.000
    O35     O    0.50936   0.17100   0.17717   1.000
    O36     O    0.59857   0.20294   0.11752   1.000
    O37     O    0.46417   0.32189   0.08883   1.000
    Zr38    Zr   0.99404   0.81618   0.95410   1.000
    O39     O    0.99091   0.77414   0.07363   1.000
    O40     O    0.87830   0.81905   0.00612   1.000
    O41     O    0.95270   0.69289   0.95722   1.000
    O42     O    0.99068   0.87498   0.85027   1.000
    O43     O    0.88030   0.85347   0.99103   1.000
    O44     O    0.02330   0.93372   0.93973   1.000
    O45     O    0.11058   0.83607   0.92420   1.000
    O46     O    0.02202   0.79162   0.07113   1.000
    O47     O    0.04939   0.92063   0.95857   1.000
    O48     O    0.09684   0.81371   0.89642   1.000
    O49     O    0.00884   0.84539   0.83652   1.000
    O50     O    0.96839   0.69476   0.92393   1.000
    Zr51    Zr   0.38165   0.71292   0.45163   1.000
    O52     O    0.34428   0.75208   0.56826   1.000
    O53     O    0.31894   0.60511   0.45555   1.000
    O54     O    0.25546   0.70974   0.42592   1.000
    O55     O    0.37851   0.77209   0.56987   1.000
    O56     O    0.49963   0.70790   0.51068   1.000
    O57     O    0.44155   0.82690   0.44784   1.000
    O58     O    0.39799   0.65499   0.34054   1.000
    O59     O    0.49746   0.67340   0.49120   1.000
    O60     O    0.34911   0.59008   0.43475   1.000
    O61     O    0.42170   0.82534   0.41349   1.000
    O62     O    0.37764   0.68512   0.32518   1.000
    O63     O    0.27106   0.72924   0.39517   1.000
loop_
    _geom_bond_atom_site_label_1
    _geom_bond_atom_site_label_2
    _geom_bond_distance
    _geom_bond_site_symmetry_2
    _ccdc_geom_bond_type
    Zr12   O13       2.20535      .   S
    N6     O13       4.43786      .   S
    Zr12   O14       2.12225      .   S
    N8     O14       4.47892  1_455   S
    Zr12   O15       2.16084      .   S
    N7     O15       4.50647      .   S
    Zr12   O16       2.20933      .   S
    N11    O16       4.37263  1_465   S
    Zr12   O17       2.27659      .   S
    N2     O17       4.55071      .   S
    Zr12   O18       2.18070  1_655   S
    N8     O18       4.38944      .   S
    Zr12   O19       2.16022      .   S
    N11    O19       4.45155  1_465   S
    Zr12   O20       2.22102      .   S
    N7     O20       4.43156      .   S
    Zr12   O21       2.18457      .   S
    N4     O21       4.57715      .   S
    Zr12   O22       2.14887      .   S
    N6     O22       4.51389      .   S
    Zr12   O23       2.21688      .   S
    N2     O23       4.63901      .   S
    Zr12   O24       2.24541      .   S
    N4     O24       4.49800      .   S
    Zr25   O26       2.10144      .   S
    N0     O26       4.41898      .   S
    Zr25   O27       2.19212      .   S
    N10    O27       4.55188  1_556   S
    Zr25   O28       2.12482      .   S
    N1     O28       4.24649  1_565   S
    Zr25   O29       2.07938      .   S
    N1     O29       4.29940  1_565   S
    Zr25   O30       2.18346      .   S
    N2     O30       4.38745      .   S
    Zr25   O31       2.13817  1_554   S
    N4     O31       4.50623      .   S
    Zr25   O32       2.26442      .   S
    N9     O32       4.53493      .   S
    Zr25   O33       2.22828      .   S
    N10    O33       4.48515  1_556   S
    Zr25   O34       2.18139  1_554   S
    N4     O34       4.43453      .   S
    Zr25   O35       2.15655      .   S
    N0     O35       4.34465      .   S
    Zr25   O36       2.11939      .   S
    N2     O36       4.46564      .   S
    Zr25   O37       2.20252      .   S
    N9     O37       4.62485      .   S
    Zr38   O39       2.19750  1_556   S
    N3     O39       4.46196  1_455   S
    Zr38   O40       2.18752  1_556   S
    N1     O40       4.46386      .   S
    Zr38   O41       2.24205      .   S
    N7     O41       4.52036      .   S
    Zr38   O42       2.07083      .   S
    N11    O42       4.36482  1_455   S
    Zr38   O43       2.15669      .   S
    N1     O43       4.52463  1_554   S
    Zr38   O44       2.10448  1_655   S
    N10    O44       4.17894  1_545   S
    Zr38   O45       2.10173  1_655   S
    N5     O45       4.28864      .   S
    Zr38   O46       2.12671  1_656   S
    N3     O46       4.55751      .   S
    Zr38   O47       2.03773  1_655   S
    N10    O47       4.25244  1_545   S
    Zr38   O48       2.03242  1_655   S
    N5     O48       4.37792      .   S
    Zr38   O49       2.11455  1_655   S
    N11    O49       4.30717      .   S
    Zr38   O50       2.19667      .   S
    N7     O50       4.59137      .   S
    Zr51   O52       2.21617      .   S
    N5     O52       4.63783      .   S
    Zr51   O53       2.15075      .   S
    N8     O53       4.51703      .   S
    Zr51   O54       2.21919      .   S
    N3     O54       4.42495      .   S
    Zr51   O55       2.27666      .   S
    N5     O55       4.54804      .   S
    Zr51   O56       2.27625      .   S
    N6     O56       4.55108      .   S
    Zr51   O57       2.22029      .   S
    N0     O57       4.39553  1_545   S
    Zr51   O58       2.17467      .   S
    N9     O58       4.54681      .   S
    Zr51   O59       2.21805      .   S
    N6     O59       4.63920      .   S
    Zr51   O60       2.20662      .   S
    N8     O60       4.44151      .   S
    Zr51   O61       2.16539      .   S
    N0     O61       4.48257  1_545   S
    Zr51   O62       2.23500      .   S
    N9     O62       4.47014      .   S
    Zr51   O63       2.16011      .   S
    N3     O63       4.50148      .   S
