# CIF file generated by openbabel 2.4.90, see http://openbabel.sf.net
data_I
_chemical_name_common ''
_cell_length_a 17.224
_cell_length_b 17.234
_cell_length_c 17.292
_cell_angle_alpha 90.548
_cell_angle_beta 90
_cell_angle_gamma 90
_space_group_name_H-M_alt 'P 1'
_space_group_name_Hall 'P 1'
loop_
    _symmetry_equiv_pos_as_xyz
    x,y,z
loop_
    _atom_site_label
    _atom_site_type_symbol
    _atom_site_fract_x
    _atom_site_fract_y
    _atom_site_fract_z
    _atom_site_occupancy
    C0      C    0.43336   0.10732   0.08427   1.000
    C1      C    0.58569   0.17240   0.00000   1.000
    C2      C    0.42610   0.26481   0.00000   1.000
    C3      C    0.51901   0.25859   0.14906   1.000
    C4      C    0.43781   0.61697   0.42620   1.000
    C5      C    0.35675   0.76915   0.35553   1.000
    C6      C    0.79340   0.32925   0.50745   1.000
    C7      C    0.44750   0.77733   0.51722   1.000
    C8      C    0.94218   0.90955   0.93097   1.000
    C9      C    0.07866   0.84503   0.00340   1.000
    C10     C    0.93597   0.75266   0.01025   1.000
    C11     C    0.01339   0.75698   0.86633   1.000
    C12     C    0.94591   0.40032   0.58949   1.000
    C13     C    0.86426   0.24816   0.65988   1.000
    C14     C    0.28542   0.68829   0.50810   1.000
    C15     C    0.95546   0.24011   0.49839   1.000
    C16     C    0.70916   0.99440   0.98121   1.000
    C17     C    0.75120   0.75455   0.11066   1.000
    C18     C    0.67883   0.68768   0.20395   1.000
    C19     C    0.55904   0.72057   0.25886   1.000
    C20     C    0.48043   0.82847   0.23398   1.000
    C21     C    0.50025   0.92892   0.14560   1.000
    C22     C    0.67187   0.22722   0.78715   1.000
    C23     C    0.57428   0.33746   0.54578   1.000
    C24     C    0.45323   0.38706   0.50630   1.000
    C25     C    0.33741   0.39488   0.57616   1.000
    C26     C    0.31283   0.35934   0.70398   1.000
    C27     C    0.39880   0.30747   0.79568   1.000
    C28     C    0.71424   0.27999   0.27550   1.000
    C29     C    0.94936   0.12509   0.31716   1.000
    C30     C    0.00000   0.03222   0.24250   1.000
    C31     C    0.98771   0.00000   0.11918   1.000
    C32     C    0.88053   0.01332   0.04019   1.000
    C33     C    0.78024   0.10275   0.06213   1.000
    C34     C    0.40584   0.00000   0.27658   1.000
    C35     C    0.56402   0.95505   0.50746   1.000
    C36     C    0.65915   0.00933   0.57303   1.000
    C37     C    0.70848   0.13215   0.54439   1.000
    C38     C    0.67561   0.21403   0.44224   1.000
    C39     C    0.58325   0.19526   0.34430   1.000
    C40     C    0.46139   0.48622   0.23619   1.000
    C41     C    0.37723   0.47154   0.98057   1.000
    C42     C    0.32435   0.56188   0.89431   1.000
    C43     C    0.28857   0.69067   0.91730   1.000
    C44     C    0.29597   0.76307   0.00000   1.000
    C45     C    0.34633   0.72565   0.13759   1.000
    C46     C    0.66476   0.52748   0.48223   1.000
    C47     C    0.88061   0.59608   0.65452   1.000
    C48     C    0.90459   0.69927   0.74080   1.000
    C49     C    0.82803   0.80876   0.76678   1.000
    C50     C    0.70634   0.84072   0.71612   1.000
    C51     C    0.63051   0.77221   0.62549   1.000
    C52     C    0.20027   0.02293   0.03417   1.000
    C53     C    0.24154   0.26252   0.90438   1.000
    C54     C    0.16932   0.32923   0.81085   1.000
    C55     C    0.04967   0.29623   0.75573   1.000
    C56     C    0.98775   0.18829   0.78062   1.000
    C57     C    0.00000   0.08814   0.86920   1.000
    C58     C    0.16434   0.79039   0.22820   1.000
    C59     C    0.06650   0.68035   0.46962   1.000
    C60     C    0.96212   0.63079   0.50891   1.000
    C61     C    0.84638   0.62289   0.43902   1.000
    C62     C    0.82193   0.65836   0.31114   1.000
    C63     C    0.90801   0.71022   0.21952   1.000
    C64     C    0.20692   0.73688   0.74097   1.000
    C65     C    0.44067   0.89328   0.69748   1.000
    C66     C    0.50783   0.98656   0.77145   1.000
    C67     C    0.47829   0.01701   0.89528   1.000
    C68     C    0.37374   0.00000   0.97514   1.000
    C69     C    0.27357   0.91468   0.95388   1.000
    C70     C    0.91345   0.01590   0.73914   1.000
    C71     C    0.05480   0.06221   0.50800   1.000
    C72     C    0.15160   0.00000   0.44251   1.000
    C73     C    0.20109   0.88518   0.47122   1.000
    C74     C    0.16839   0.80334   0.57346   1.000
    C75     C    0.07602   0.82204   0.67140   1.000
    C76     C    0.97136   0.52955   0.77951   1.000
    C77     C    0.88752   0.54624   0.03470   1.000
    C78     C    0.83242   0.45714   0.12091   1.000
    C79     C    0.79482   0.32876   0.09805   1.000
    C80     C    0.80202   0.25582   0.98375   1.000
    C81     C    0.85207   0.29219   0.87822   1.000
    C82     C    0.15613   0.49017   0.53331   1.000
    C83     C    0.37194   0.42114   0.36109   1.000
    C84     C    0.39573   0.31781   0.27493   1.000
    C85     C    0.31900   0.20845   0.24901   1.000
    C86     C    0.19725   0.17670   0.29968   1.000
    C87     C    0.12158   0.24541   0.39030   1.000
    C88     C    0.56141   0.00867   0.03273   1.000
    C89     C    0.61533   0.96112   0.04562   1.000
    C90     C    0.68749   0.95394   0.00809   1.000
    C91     C    0.72661   0.88705   0.03301   1.000
    C92     C    0.67831   0.84926   0.08870   1.000
    C93     C    0.60760   0.89727   0.09759   1.000
    C94     C    0.69589   0.78059   0.12725   1.000
    C95     C    0.65271   0.74124   0.18280   1.000
    C96     C    0.58104   0.76074   0.21555   1.000
    C97     C    0.53384   0.82469   0.20028   1.000
    C98     C    0.54549   0.88473   0.14786   1.000
    C99     C    0.80432   0.86483   0.00585   1.000
    C100    C    0.53201   0.25066   0.87054   1.000
    C101    C    0.54961   0.26631   0.78916   1.000
    C102    C    0.62293   0.25195   0.75650   1.000
    C103    C    0.62467   0.27583   0.67906   1.000
    C104    C    0.54973   0.30612   0.66010   1.000
    C105    C    0.50122   0.29907   0.73051   1.000
    C106    C    0.52792   0.33645   0.58875   1.000
    C107    C    0.45599   0.36564   0.56555   1.000
    C108    C    0.38685   0.37094   0.60750   1.000
    C109    C    0.37227   0.34983   0.68395   1.000
    C110    C    0.42295   0.31869   0.73855   1.000
    C111    C    0.69541   0.27091   0.63220   1.000
    C112    C    0.68307   0.21704   0.12701   1.000
    C113    C    0.74753   0.20087   0.17980   1.000
    C114    C    0.75424   0.23680   0.25283   1.000
    C115    C    0.81984   0.20897   0.29206   1.000
    C116    C    0.85738   0.15294   0.24293   1.000
    C117    C    0.81071   0.14731   0.17127   1.000
    C118    C    0.92475   0.11151   0.26053   1.000
    C119    C    0.96427   0.05622   0.21600   1.000
    C120    C    0.94636   0.02683   0.14253   1.000
    C121    C    0.88360   0.04517   0.09490   1.000
    C122    C    0.82370   0.09837   0.10775   1.000
    C123    C    0.84116   0.23523   0.37014   1.000
    C124    C    0.46920   0.13196   0.24719   1.000
    C125    C    0.48478   0.07851   0.31050   1.000
    C126    C    0.44867   0.00564   0.31632   1.000
    C127    C    0.47810   0.98299   0.38064   1.000
    C128    C    0.53411   0.01348   0.41800   1.000
    C129    C    0.53935   0.08568   0.37274   1.000
    C130    C    0.57774   0.00000   0.48374   1.000
    C131    C    0.63389   0.03716   0.52240   1.000
    C132    C    0.66355   0.11045   0.50518   1.000
    C133    C    0.64359   0.15958   0.44461   1.000
    C134    C    0.58867   0.14863   0.38610   1.000
    C135    C    0.45198   0.90485   0.40104   1.000
    C136    C    0.43737   0.39943   0.09748   1.000
    C137    C    0.42032   0.48111   0.11490   1.000
    C138    C    0.43504   0.51553   0.18753   1.000
    C139    C    0.40973   0.59306   0.18876   1.000
    C140    C    0.41464   0.64200   0.25837   1.000
    C141    C    0.38627   0.53894   0.06649   1.000
    C142    C    0.36567   0.52929   0.00000   1.000
    C143    C    0.33398   0.58314   0.95325   1.000
    C144    C    0.31261   0.66022   0.96701   1.000
    C145    C    0.31773   0.70369   0.00000   1.000
    C146    C    0.34759   0.68166   0.09182   1.000
    C147    C    0.37856   0.61038   0.11413   1.000
    C148    C    0.57410   0.65995   0.52088   1.000
    C149    C    0.65183   0.63768   0.54757   1.000
    C150    C    0.68906   0.56930   0.52284   1.000
    C151    C    0.76205   0.56225   0.55853   1.000
    C152    C    0.77242   0.62783   0.60908   1.000
    C153    C    0.70204   0.67649   0.60158   1.000
    C154    C    0.83615   0.64109   0.65739   1.000
    C155    C    0.85023   0.70264   0.70862   1.000
    C156    C    0.80416   0.76754   0.72466   1.000
    C157    C    0.73159   0.78670   0.69414   1.000
    C158    C    0.68632   0.74633   0.64015   1.000
    C159    C    0.81295   0.49520   0.54500   1.000
    C160    C    0.05321   0.00000   0.98254   1.000
    C161    C    0.10546   0.05613   0.96900   1.000
    C162    C    0.17759   0.06333   0.00000   1.000
    C163    C    0.21679   0.13012   0.98218   1.000
    C164    C    0.16860   0.16784   0.92636   1.000
    C165    C    0.09786   0.11987   0.91748   1.000
    C166    C    0.18625   0.23645   0.88773   1.000
    C167    C    0.14317   0.27571   0.83199   1.000
    C168    C    0.07158   0.25613   0.79916   1.000
    C169    C    0.02435   0.19221   0.81446   1.000
    C170    C    0.03586   0.13230   0.86705   1.000
    C171    C    0.29450   0.15237   0.00000   1.000
    C172    C    0.00000   0.76693   0.14478   1.000
    C173    C    0.04206   0.75134   0.22618   1.000
    C174    C    0.11538   0.76570   0.25886   1.000
    C175    C    0.11706   0.74187   0.33632   1.000
    C176    C    0.04208   0.71163   0.35523   1.000
    C177    C    0.00000   0.71864   0.28481   1.000
    C178    C    0.02019   0.68133   0.42660   1.000
    C179    C    0.96495   0.65216   0.44973   1.000
    C180    C    0.89585   0.64683   0.40772   1.000
    C181    C    0.88135   0.66789   0.33124   1.000
    C182    C    0.93208   0.69901   0.27669   1.000
    C183    C    0.18777   0.74672   0.38320   1.000
    C184    C    0.17647   0.79982   0.88979   1.000
    C185    C    0.24035   0.81636   0.83643   1.000
    C186    C    0.24680   0.78036   0.76338   1.000
    C187    C    0.31198   0.80851   0.72367   1.000
    C188    C    0.34951   0.86484   0.77249   1.000
    C189    C    0.30330   0.87031   0.84444   1.000
    C190    C    0.41646   0.90670   0.75430   1.000
    C191    C    0.45605   0.96222   0.79851   1.000
    C192    C    0.43869   0.99138   0.87220   1.000
    C193    C    0.37645   0.97264   0.92032   1.000
    C194    C    0.31663   0.91924   0.90790   1.000
    C195    C    0.33311   0.78224   0.64551   1.000
    C196    C    0.97852   0.88503   0.76846   1.000
    C197    C    0.99423   0.93863   0.70510   1.000
    C198    C    0.95807   0.00000   0.69940   1.000
    C199    C    0.98575   0.03429   0.63514   1.000
    C200    C    0.02680   0.00000   0.59773   1.000
    C201    C    0.03208   0.93159   0.64290   1.000
    C202    C    0.06859   0.00546   0.53194   1.000
    C203    C    0.12644   0.98011   0.49320   1.000
    C204    C    0.15618   0.90687   0.51045   1.000
    C205    C    0.13632   0.85775   0.57108   1.000
    C206    C    0.08142   0.86867   0.62955   1.000
    C207    C    0.95965   0.11248   0.61471   1.000
    C208    C    0.94822   0.61695   0.91788   1.000
    C209    C    0.93000   0.53549   0.90058   1.000
    C210    C    0.94431   0.50073   0.82809   1.000
    C211    C    0.91754   0.42371   0.82685   1.000
    C212    C    0.92158   0.37450   0.75735   1.000
    C213    C    0.89472   0.47840   0.94902   1.000
    C214    C    0.87503   0.48862   0.01123   1.000
    C215    C    0.84209   0.43550   0.06211   1.000
    C216    C    0.81962   0.35870   0.04848   1.000
    C217    C    0.82453   0.31491   0.98025   1.000
    C218    C    0.85384   0.33629   0.92387   1.000
    C219    C    0.88588   0.40705   0.90145   1.000
    C220    C    0.06538   0.35763   0.49475   1.000
    C221    C    0.14311   0.37991   0.46800   1.000
    C222    C    0.18039   0.44831   0.49273   1.000
    C223    C    0.25340   0.45528   0.45703   1.000
    C224    C    0.26370   0.38962   0.40650   1.000
    C225    C    0.19328   0.34102   0.41410   1.000
    C226    C    0.32741   0.37620   0.35828   1.000
    C227    C    0.34139   0.31455   0.30714   1.000
    C228    C    0.29521   0.24972   0.29112   1.000
    C229    C    0.22260   0.23069   0.32163   1.000
    C230    C    0.17743   0.27117   0.37559   1.000
    C231    C    0.30442   0.52229   0.47004   1.000
    C232    C    0.49192   0.20017   0.05491   1.000
    C233    C    0.49908   0.01362   0.07388   1.000
    C234    C    0.57937   0.05762   0.99567   1.000
    C235    C    0.84050   0.91588   0.98148   1.000
    C236    C    0.83075   0.79748   0.02295   1.000
    C237    C    0.58732   0.22051   0.91024   1.000
    C238    C    0.46445   0.26806   0.89696   1.000
    C239    C    0.75111   0.23040   0.66004   1.000
    C240    C    0.69807   0.30623   0.56690   1.000
    C241    C    0.67968   0.17988   0.06192   1.000
    C242    C    0.63379   0.26850   0.14879   1.000
    C243    C    0.90488   0.21076   0.39980   1.000
    C244    C    0.79305   0.28171   0.40372   1.000
    C245    C    0.50772   0.19594   0.24365   1.000
    C246    C    0.41692   0.11191   0.19771   1.000
    C247    C    0.47495   0.87538   0.46496   1.000
    C248    C    0.40695   0.87105   0.35179   1.000
    C249    C    0.46800   0.35994   0.15255   1.000
    C250    C    0.42061   0.37229   0.03006   1.000
    C251    C    0.45805   0.61734   0.31321   1.000
    C252    C    0.37625   0.70619   0.26100   1.000
    C253    C    0.38079   0.71286   0.45110   1.000
    C254    C    0.54655   0.72606   0.54216   1.000
    C255    C    0.53889   0.61044   0.47731   1.000
    C256    C    0.87810   0.49215   0.58205   1.000
    C257    C    0.78918   0.44339   0.49737   1.000
    C258    C    0.00000   0.81668   0.95953   1.000
    C259    C    0.00000   0.00000   0.94140   1.000
    C260    C    0.07226   0.95975   0.01966   1.000
    C261    C    0.33165   0.10137   0.03394   1.000
    C262    C    0.32101   0.21962   0.99212   1.000
    C263    C    0.07988   0.79703   0.10512   1.000
    C264    C    0.97370   0.74954   0.11832   1.000
    C265    C    0.24369   0.78687   0.35522   1.000
    C266    C    0.19020   0.71172   0.44866   1.000
    C267    C    0.17261   0.83784   0.95432   1.000
    C268    C    0.12798   0.74703   0.86918   1.000
    C269    C    0.39677   0.80675   0.61572   1.000
    C270    C    0.28499   0.73574   0.61199   1.000
    C271    C    0.00000   0.82105   0.77221   1.000
    C272    C    0.92592   0.90521   0.81756   1.000
    C273    C    0.98278   0.14207   0.55090   1.000
    C274    C    0.91445   0.14626   0.66382   1.000
    C275    C    0.97972   0.65547   0.86259   1.000
    C276    C    0.93165   0.64483   0.98504   1.000
    C277    C    0.96610   0.39762   0.70270   1.000
    C278    C    0.88125   0.31152   0.75457   1.000
    C279    C    0.88871   0.30453   0.56448   1.000
    C280    C    0.03778   0.29153   0.47340   1.000
    C281    C    0.03019   0.40715   0.53832   1.000
    C282    C    0.36963   0.52525   0.43360   1.000
    C283    C    0.28063   0.57418   0.51808   1.000
    O284    O    0.53881   0.18629   0.02746   1.000
    O285    O    0.63269   0.17614   0.03096   1.000
    O286    O    0.58650   0.19646   0.95512   1.000
    O287    O    0.58253   0.11501   0.99784   1.000
    O288    O    0.31307   0.12687   0.01697   1.000
    O289    O    0.25565   0.14124   0.99109   1.000
    O290    O    0.30776   0.18599   0.99606   1.000
    O291    O    0.18893   0.04313   0.01709   1.000
    O292    O    0.14152   0.05973   0.98450   1.000
    O293    O    0.19719   0.09673   0.99109   1.000
    O294    O    0.30685   0.73338   0.00000   1.000
    O295    O    0.33266   0.69267   0.04591   1.000
    O296    O    0.31517   0.68195   0.98351   1.000
    O297    O    0.37597   0.53411   0.03325   1.000
    O298    O    0.34983   0.55622   0.97663   1.000
    O299    O    0.37145   0.50041   0.99029   1.000
    O300    O    0.42336   0.31855   0.01503   1.000
    O301    O    0.45901   0.23249   0.02746   1.000
    O302    O    0.44528   0.26644   0.94848   1.000
    O303    O    0.37356   0.24221   0.99606   1.000
    O304    O    0.07546   0.90239   0.01153   1.000
    O305    O    0.07927   0.82103   0.05426   1.000
    O306    O    0.12564   0.84144   0.97886   1.000
    O307    O    0.03933   0.83086   0.98147   1.000
    O308    O    0.81754   0.83115   0.01440   1.000
    O309    O    0.76547   0.87594   0.01943   1.000
    O310    O    0.82241   0.89036   0.99367   1.000
    O311    O    0.70705   0.92050   0.02055   1.000
    O312    O    0.65141   0.95753   0.02686   1.000
    O313    O    0.69832   0.97417   0.99465   1.000
    O314    O    0.88336   0.77507   0.01660   1.000
    O315    O    0.95484   0.75110   0.06429   1.000
    O316    O    0.96798   0.78467   0.98489   1.000
    O317    O    0.93381   0.69875   0.99765   1.000
    O318    O    0.88127   0.51743   0.02297   1.000
    O319    O    0.85856   0.46206   0.03667   1.000
    O320    O    0.88487   0.48351   0.98013   1.000
    O321    O    0.06274   0.97987   0.00110   1.000
    O322    O    0.42899   0.38586   0.06377   1.000
    O323    O    0.58837   0.98490   0.03918   1.000
    O324    O    0.53024   0.01115   0.05331   1.000
    O325    O    0.57039   0.03314   0.01420   1.000
    O326    O    0.70246   0.86816   0.06086   1.000
    O327    O    0.38250   0.10435   0.05911   1.000
    O328    O    0.88207   0.02925   0.06755   1.000
    O329    O    0.61146   0.92920   0.07161   1.000
    O330    O    0.83085   0.39710   0.05530   1.000
    O331    O    0.80722   0.34373   0.07327   1.000
    O332    O    0.82207   0.33681   0.01437   1.000
    O333    O    0.68138   0.19846   0.09447   1.000
    O334    O    0.83725   0.44632   0.09151   1.000
    O335    O    0.80197   0.10056   0.08494   1.000
    O336    O    0.38241   0.57466   0.09031   1.000
    O337    O    0.40329   0.51003   0.09070   1.000
    O338    O    0.46622   0.06047   0.07908   1.000
    O339    O    0.42514   0.10961   0.14099   1.000
    O340    O    0.64295   0.87327   0.09315   1.000
    O341    O    0.68710   0.81493   0.10798   1.000
    O342    O    0.36307   0.64602   0.10298   1.000
    O343    O    0.34696   0.70366   0.11471   1.000
    O344    O    0.85365   0.07177   0.10133   1.000
    O345    O    0.91498   0.03600   0.11872   1.000
    O346    O    0.42884   0.44027   0.10619   1.000
    O347    O    0.45268   0.37968   0.12502   1.000
    O348    O    0.57655   0.89100   0.12273   1.000
    O349    O    0.03994   0.78198   0.12495   1.000
    O350    O    0.81721   0.12284   0.13951   1.000
    O351    O    0.72355   0.76757   0.11896   1.000
    O352    O    0.39414   0.60172   0.15145   1.000
    O353    O    0.42768   0.49832   0.15122   1.000
    O354    O    0.98685   0.75824   0.13155   1.000
    O355    O    0.96704   0.01342   0.13086   1.000
    O356    O    0.65843   0.24277   0.13790   1.000
    O357    O    0.71530   0.20896   0.15341   1.000
    O358    O    0.67430   0.76091   0.15503   1.000
    O359    O    0.95532   0.04152   0.17927   1.000
    O360    O    0.02103   0.75913   0.18548   1.000
    O361    O    0.52287   0.90682   0.14673   1.000
    O362    O    0.53967   0.85471   0.17407   1.000
    O363    O    0.57640   0.26355   0.14893   1.000
    O364    O    0.49350   0.30927   0.15081   1.000
    O365    O    0.51336   0.22727   0.19636   1.000
    O366    O    0.77912   0.17409   0.17554   1.000
    O367    O    0.83405   0.15012   0.20710   1.000
    O368    O    0.75088   0.21883   0.21632   1.000
    O369    O    0.66577   0.71446   0.19338   1.000
    O370    O    0.61687   0.75099   0.19918   1.000
    O371    O    0.42239   0.55429   0.18815   1.000
    O372    O    0.44822   0.50087   0.21186   1.000
    O373    O    0.41219   0.61753   0.22357   1.000
    O374    O    0.44306   0.12194   0.22245   1.000
    O375    O    0.55744   0.79272   0.20792   1.000
    O376    O    0.50714   0.82658   0.21713   1.000
    O377    O    0.57004   0.74066   0.23721   1.000
    O378    O    0.98214   0.04422   0.22925   1.000
    O379    O    0.94451   0.08387   0.23827   1.000
    O380    O    0.92004   0.70461   0.24811   1.000
    O381    O    0.07872   0.75852   0.24252   1.000
    O382    O    0.02103   0.73499   0.25550   1.000
    O383    O    0.13986   0.77804   0.24353   1.000
    O384    O    0.89106   0.13223   0.25173   1.000
    O385    O    0.83861   0.18095   0.26750   1.000
    O386    O    0.48846   0.16395   0.24542   1.000
    O387    O    0.47699   0.10523   0.27885   1.000
    O388    O    0.30711   0.22908   0.27007   1.000
    O389    O    0.73424   0.25839   0.26417   1.000
    O390    O    0.78704   0.22288   0.27245   1.000
    O391    O    0.39545   0.67409   0.25969   1.000
    O392    O    0.43635   0.62967   0.28579   1.000
    O393    O    0.11622   0.75379   0.29759   1.000
    O394    O    0.93705   0.11830   0.28885   1.000
    O395    O    0.36650   0.73767   0.30827   1.000
    O396    O    0.36856   0.31618   0.29104   1.000
    O397    O    0.42725   0.00282   0.29645   1.000
    O398    O    0.96604   0.70882   0.28075   1.000
    O399    O    0.90671   0.68345   0.30397   1.000
    O400    O    0.02104   0.71513   0.32002   1.000
    O401    O    0.31830   0.28213   0.29913   1.000
    O402    O    0.25891   0.24020   0.30638   1.000
    O403    O    0.83050   0.22210   0.33110   1.000
    O404    O    0.20993   0.20369   0.31066   1.000
    O405    O    0.33440   0.34537   0.33271   1.000
    O406    O    0.46673   0.04207   0.31341   1.000
    O407    O    0.51207   0.08209   0.34162   1.000
    O408    O    0.85164   0.66313   0.32119   1.000
    O409    O    0.44793   0.61715   0.36971   1.000
    O410    O    0.46338   0.99431   0.34848   1.000
    O411    O    0.20002   0.25093   0.34861   1.000
    O412    O    0.88860   0.65736   0.36948   1.000
    O413    O    0.07957   0.72675   0.34578   1.000
    O414    O    0.15242   0.74429   0.35976   1.000
    O415    O    0.58596   0.17194   0.36520   1.000
    O416    O    0.38185   0.82010   0.35366   1.000
    O417    O    0.42946   0.88795   0.37642   1.000
    O418    O    0.30022   0.77801   0.35538   1.000
    O419    O    0.21573   0.76679   0.36921   1.000
    O420    O    0.03114   0.69648   0.39092   1.000
    O421    O    0.34968   0.39867   0.35969   1.000
    O422    O    0.29556   0.38291   0.38239   1.000
    O423    O    0.87302   0.22299   0.38497   1.000
    O424    O    0.81711   0.25847   0.38693   1.000
    O425    O    0.56401   0.11716   0.37942   1.000
    O426    O    0.53673   0.04958   0.39537   1.000
    O427    O    0.14950   0.25829   0.38295   1.000
    O428    O    0.18535   0.30609   0.39485   1.000
    O429    O    0.46504   0.94392   0.39084   1.000
    O430    O    0.50611   0.99824   0.39932   1.000
    O431    O    0.18899   0.72922   0.41593   1.000
    O432    O    0.61613   0.15411   0.41536   1.000
    O433    O    0.93017   0.22543   0.44910   1.000
    O434    O    0.46346   0.89011   0.43300   1.000
    O435    O    0.79323   0.30548   0.45559   1.000
    O436    O    0.22849   0.36532   0.41030   1.000
    O437    O    0.25855   0.42245   0.43177   1.000
    O438    O    0.87111   0.63486   0.42337   1.000
    O439    O    0.93040   0.64950   0.42873   1.000
    O440    O    0.16820   0.36047   0.44105   1.000
    O441    O    0.55593   0.00674   0.45087   1.000
    O442    O    0.40372   0.57111   0.42990   1.000
    O443    O    0.48835   0.61371   0.45176   1.000
    O444    O    0.99257   0.66675   0.43817   1.000
    O445    O    0.04335   0.68084   0.44811   1.000
    O446    O    0.33702   0.52377   0.45182   1.000
    O447    O    0.65960   0.18681   0.44343   1.000
    O448    O    0.13902   0.99006   0.46786   1.000
    O449    O    0.65357   0.13502   0.47490   1.000
    O450    O    0.23781   0.70000   0.47838   1.000
    O451    O    0.96354   0.64148   0.47932   1.000
    O452    O    0.33311   0.70057   0.47960   1.000
    O453    O    0.41415   0.74509   0.48416   1.000
    O454    O    0.27891   0.48878   0.46354   1.000
    O455    O    0.21689   0.45179   0.47488   1.000
    O456    O    0.46123   0.82635   0.49109   1.000
    O457    O    0.16175   0.41411   0.48037   1.000
    O458    O    0.10425   0.36877   0.48138   1.000
    O459    O    0.29252   0.54824   0.49406   1.000
    O460    O    0.17863   0.89602   0.49084   1.000
    O461    O    0.05158   0.32458   0.48408   1.000
    O462    O    0.99662   0.26582   0.48590   1.000
    O463    O    0.55649   0.63519   0.49910   1.000
    O464    O    0.67691   0.54839   0.50254   1.000
    O465    O    0.57088   0.97753   0.49560   1.000
    O466    O    0.60582   0.01858   0.50307   1.000
    O467    O    0.16826   0.46924   0.51302   1.000
    O468    O    0.14131   0.94349   0.50183   1.000
    O469    O    0.09752   0.99279   0.51257   1.000
    O470    O    0.04778   0.38239   0.51654   1.000
    O471    O    0.79129   0.38632   0.50241   1.000
    O472    O    0.80106   0.46930   0.52119   1.000
    O473    O    0.96912   0.19109   0.52465   1.000
    O474    O    0.92208   0.27232   0.53144   1.000
    O475    O    0.64872   0.07380   0.51379   1.000
    O476    O    0.68601   0.12130   0.52479   1.000
    O477    O    0.45461   0.37635   0.53593   1.000
    O478    O    0.84106   0.31689   0.53597   1.000
    O479    O    0.74574   0.31774   0.53718   1.000
    O480    O    0.06170   0.03384   0.51997   1.000
    O481    O    0.28302   0.63124   0.51309   1.000
    O482    O    0.28521   0.71201   0.56005   1.000
    O483    O    0.14625   0.88231   0.54077   1.000
    O484    O    0.49703   0.75170   0.52969   1.000
    O485    O    0.42214   0.79204   0.56647   1.000
    O486    O    0.56032   0.69301   0.53152   1.000
    O487    O    0.61296   0.64881   0.53423   1.000
    O488    O    0.64652   0.02325   0.54772   1.000
    O489    O    0.67044   0.60349   0.53521   1.000
    O490    O    0.72555   0.56578   0.54069   1.000
    O491    O    0.04770   0.00273   0.56484   1.000
    O492    O    0.98805   0.40374   0.56391   1.000
    O493    O    0.78750   0.52872   0.55177   1.000
    O494    O    0.84552   0.49367   0.56353   1.000
    O495    O    0.55110   0.33696   0.56727   1.000
    O496    O    0.67693   0.65708   0.57458   1.000
    O497    O    0.97121   0.12727   0.58281   1.000
    O498    O    0.76723   0.59504   0.58381   1.000
    O499    O    0.49196   0.35105   0.57715   1.000
    O500    O    0.42142   0.36829   0.58653   1.000
    O501    O    0.69674   0.28857   0.59955   1.000
    O502    O    0.15235   0.83055   0.57227   1.000
    O503    O    0.10887   0.86321   0.60032   1.000
    O504    O    0.36213   0.38291   0.59183   1.000
    O505    O    0.91200   0.44624   0.58577   1.000
    O506    O    0.53882   0.32129   0.62443   1.000
    O507    O    0.95600   0.39897   0.64610   1.000
    O508    O    0.00628   0.01714   0.61644   1.000
    O509    O    0.02944   0.96580   0.62032   1.000
    O510    O    0.73723   0.65216   0.60533   1.000
    O511    O    0.69418   0.71141   0.62087   1.000
    O512    O    0.37956   0.36039   0.64573   1.000
    O513    O    0.80428   0.63446   0.63324   1.000
    O514    O    0.30905   0.75899   0.62875   1.000
    O515    O    0.97270   0.07338   0.62493   1.000
    O516    O    0.93705   0.12937   0.63927   1.000
    O517    O    0.36494   0.79450   0.63062   1.000
    O518    O    0.65841   0.75927   0.63282   1.000
    O519    O    0.05675   0.90013   0.63623   1.000
    O520    O    0.07872   0.84536   0.65048   1.000
    O521    O    0.72326   0.25065   0.64612   1.000
    O522    O    0.66004   0.27337   0.65563   1.000
    O523    O    0.97191   0.01714   0.66727   1.000
    O524    O    0.70896   0.76652   0.66715   1.000
    O525    O    0.01316   0.93511   0.67400   1.000
    O526    O    0.32255   0.79538   0.68459   1.000
    O527    O    0.85838   0.61858   0.65596   1.000
    O528    O    0.84319   0.67186   0.68301   1.000
    O529    O    0.80769   0.23928   0.65996   1.000
    O530    O    0.88936   0.19721   0.66185   1.000
    O531    O    0.87276   0.27984   0.70723   1.000
    O532    O    0.58720   0.29097   0.66958   1.000
    O533    O    0.52547   0.30260   0.69531   1.000
    O534    O    0.62380   0.26389   0.71778   1.000
    O535    O    0.34255   0.35459   0.69397   1.000
    O536    O    0.39761   0.33426   0.71125   1.000
    O537    O    0.71897   0.81371   0.70513   1.000
    O538    O    0.76788   0.77712   0.70940   1.000
    O539    O    0.42856   0.89999   0.72589   1.000
    O540    O    0.97615   0.96932   0.70225   1.000
    O541    O    0.93576   0.00795   0.71927   1.000
    O542    O    0.94384   0.38606   0.73003   1.000
    O543    O    0.98638   0.91183   0.73678   1.000
    O544    O    0.82720   0.73509   0.71664   1.000
    O545    O    0.87741   0.70095   0.72471   1.000
    O546    O    0.27939   0.79444   0.74353   1.000
    O547    O    0.33075   0.83668   0.74808   1.000
    O548    O    0.81610   0.78815   0.74572   1.000
    O549    O    0.46208   0.30888   0.73453   1.000
    O550    O    0.52541   0.28269   0.75984   1.000
    O551    O    0.41087   0.31308   0.76712   1.000
    O552    O    0.22686   0.75862   0.75218   1.000
    O553    O    0.38299   0.88577   0.76340   1.000
    O554    O    0.43626   0.93446   0.77641   1.000
    O555    O    0.90141   0.34301   0.75596   1.000
    O556    O    0.06063   0.27618   0.77745   1.000
    O557    O    0.64740   0.23958   0.77183   1.000
    O558    O    0.58627   0.25913   0.77283   1.000
    O559    O    0.91956   0.39910   0.79210   1.000
    O560    O    0.24358   0.79836   0.79991   1.000
    O561    O    0.98926   0.85304   0.77034   1.000
    O562    O    0.95222   0.89512   0.79301   1.000
    O563    O    0.48194   0.97439   0.78498   1.000
    O564    O    0.00670   0.78901   0.81927   1.000
    O565    O    0.32641   0.86758   0.80847   1.000
    O566    O    0.95783   0.51514   0.80380   1.000
    O567    O    0.00605   0.19025   0.79754   1.000
    O568    O    0.54081   0.25849   0.82985   1.000
    O569    O    0.44737   0.97680   0.83536   1.000
    O570    O    0.04797   0.22417   0.80681   1.000
    O571    O    0.10737   0.26592   0.81558   1.000
    O572    O    0.15624   0.30247   0.82142   1.000
    O573    O    0.03011   0.16226   0.84076   1.000
    O574    O    0.93405   0.90738   0.87427   1.000
    O575    O    0.93092   0.46222   0.82747   1.000
    O576    O    0.90171   0.41538   0.86415   1.000
    O577    O    0.93716   0.51811   0.86434   1.000
    O578    O    0.16471   0.25608   0.85986   1.000
    O579    O    0.27183   0.84334   0.84044   1.000
    O580    O    0.20841   0.80809   0.86311   1.000
    O581    O    0.30997   0.89478   0.87617   1.000
    O582    O    0.99656   0.70622   0.86446   1.000
    O583    O    0.96397   0.63621   0.89024   1.000
    O584    O    0.07068   0.75200   0.86776   1.000
    O585    O    0.01793   0.11022   0.86813   1.000
    O586    O    0.06686   0.12608   0.89227   1.000
    O587    O    0.15222   0.77342   0.87949   1.000
    O588    O    0.49823   0.25936   0.88375   1.000
    O589    O    0.55966   0.23559   0.89039   1.000
    O590    O    0.45849   0.00419   0.88374   1.000
    O591    O    0.40757   0.98201   0.89626   1.000
    O592    O    0.85295   0.31424   0.90105   1.000
    O593    O    0.21389   0.24948   0.89606   1.000
    O594    O    0.17742   0.20215   0.90705   1.000
    O595    O    0.17454   0.81883   0.92206   1.000
    O596    O    0.32917   0.57251   0.92378   1.000
    O597    O    0.93911   0.57622   0.90923   1.000
    O598    O    0.91236   0.50694   0.92480   1.000
    O599    O    0.86986   0.37167   0.91266   1.000
    O600    O    0.89030   0.44272   0.92524   1.000
    O601    O    0.34654   0.94594   0.91411   1.000
    O602    O    0.29510   0.91696   0.93089   1.000
    O603    O    0.30059   0.67544   0.94216   1.000
    O604    O    0.13323   0.14385   0.92192   1.000
    O605    O    0.10166   0.08800   0.94324   1.000
    O606    O    0.93994   0.63089   0.95146   1.000
    O607    O    0.37509   0.98632   0.94773   1.000
    O608    O    0.83918   0.32560   0.95206   1.000
    O609    O    0.19269   0.14898   0.95427   1.000
    O610    O    0.97109   0.95478   0.93619   1.000
    O611    O    0.89134   0.91272   0.95623   1.000
    O612    O    0.02660   0.00000   0.96197   1.000
    O613    O    0.32330   0.62168   0.96013   1.000
    O614    O    0.07933   0.02807   0.97577   1.000
    O615    O    0.81327   0.28536   0.98200   1.000
    O616    O    0.46264   0.15374   0.06959   1.000
    O617    O    0.50546   0.22938   0.10199   1.000
    O618    O    0.40930   0.66492   0.43865   1.000
    O619    O    0.36877   0.74100   0.40332   1.000
    O620    O    0.97109   0.86311   0.94525   1.000
    O621    O    0.00669   0.78683   0.91293   1.000
    O622    O    0.91731   0.35243   0.57699   1.000
    O623    O    0.87649   0.27634   0.61218   1.000
loop_
    _geom_bond_atom_site_label_1
    _geom_bond_atom_site_label_2
    _geom_bond_distance
    _geom_bond_site_symmetry_2
    _ccdc_geom_bond_type
    C1     O284      0.96577      .   S
    C232   O284      0.96577      .   S
    C1     O285      0.97227      .   S
    C241   O285      0.97227      .   S
    C1     O286      0.88345  1_554   S
    C237   O286      0.88345      .   S
    C1     O287      0.99093  1_554   S
    C234   O287      0.99093      .   S
    C171   O288      0.61966      .   S
    C261   O288      0.61966      .   S
    C171   O289      0.71259  1_554   S
    C163   O289      0.71259      .   S
    C171   O290      0.62719  1_554   S
    C262   O290      0.62719      .   S
    C162   O291      0.49860      .   S
    C52    O291      0.49860      .   S
    C162   O292      0.67913  1_554   S
    C161   O292      0.67913      .   S
    C162   O293      0.68609  1_554   S
    C163   O293      0.68609      .   S
    C145   O294      0.54495      .   S
    C44    O294      0.54495      .   S
    C145   O295      0.85746      .   S
    C146   O295      0.85746      .   S
    C145   O296      0.47069  1_554   S
    C144   O296      0.47069      .   S
    C142   O297      0.60657      .   S
    C141   O297      0.60657      .   S
    C142   O298      0.67589  1_554   S
    C143   O298      0.67589      .   S
    C142   O299      0.53308  1_554   S
    C41    O299      0.53308      .   S
    C2     O300      0.96067      .   S
    C250   O300      0.96067      .   S
    C2     O301      0.92844      .   S
    C232   O301      0.92844      .   S
    C2     O302      0.95080  1_554   S
    C238   O302      0.95080      .   S
    C2     O303      0.98733  1_554   S
    C262   O303      0.98733      .   S
    C9     O304      0.99865      .   S
    C260   O304      0.99865      .   S
    C9     O305      0.97552      .   S
    C263   O305      0.97552      .   S
    C9     O306      0.91546  1_554   S
    C267   O306      0.91546      .   S
    C9     O307      0.81285  1_554   S
    C258   O307      0.81285      .   S
    C99    O308      0.64199      .   S
    C236   O308      0.64199      .   S
    C99    O309      0.73412      .   S
    C91    O309      0.73412      .   S
    C99    O310      0.58032  1_554   S
    C235   O310      0.58032      .   S
    C90    O311      0.70316      .   S
    C91    O311      0.70316      .   S
    C90    O312      0.70349      .   S
    C89    O312      0.70349      .   S
    C90    O313      0.46041  1_554   S
    C16    O313      0.46041      .   S
    C10    O314      0.99073      .   S
    C236   O314      0.99073      .   S
    C10    O315      0.98988      .   S
    C264   O315      0.98988      .   S
    C10    O316      0.89739  1_554   S
    C258   O316      0.89739  1_455   S
    C10    O317      0.95310  1_554   S
    C276   O317      0.95310      .   S
    C214   O318      0.54523      .   S
    C77    O318      0.54523      .   S
    C214   O319      0.69816      .   S
    C215   O319      0.69816      .   S
    C214   O320      0.57000  1_554   S
    C213   O320      0.57000      .   S
    C260   O321      0.50234      .   S
    C160   O321      0.50234  1_546   S
    C250   O322      0.64242      .   S
    C136   O322      0.64242      .   S
    C88    O323      0.62993  1_545   S
    C89    O323      0.62993      .   S
    C88    O324      0.64514      .   S
    C233   O324      0.64514      .   S
    C88    O325      0.55416      .   S
    C234   O325      0.55416  1_556   S
    C91    O326      0.71685      .   S
    C92    O326      0.71685      .   S
    C261   O327      0.97917      .   S
    C0     O327      0.97917      .   S
    C32    O328      0.54524      .   S
    C121   O328      0.54524      .   S
    C89    O329      0.71678      .   S
    C93    O329      0.71678      .   S
    C216   O330      0.69839      .   S
    C215   O330      0.69839      .   S
    C216   O331      0.54587      .   S
    C79    O331      0.54587      .   S
    C216   O332      0.69852      .   S
    C217   O332      0.69852  1_556   S
    C241   O333      0.64546      .   S
    C112   O333      0.64546      .   S
    C215   O334      0.54623      .   S
    C78    O334      0.54623      .   S
    C33    O335      0.54531      .   S
    C122   O335      0.54531      .   S
    C141   O336      0.74036      .   S
    C147   O336      0.74036      .   S
    C141   O337      0.71661      .   S
    C137   O337      0.71661      .   S
    C233   O338      0.98940      .   S
    C0     O338      0.98940      .   S
    C0     O339      0.99138      .   S
    C246   O339      0.99138      .   S
    C92    O340      0.73979      .   S
    C93    O340      0.73979      .   S
    C92    O341      0.69854      .   S
    C94    O341      0.69854      .   S
    C146   O342      0.69852      .   S
    C147   O342      0.69852      .   S
    C146   O343      0.54548      .   S
    C45    O343      0.54548      .   S
    C121   O344      0.69828      .   S
    C122   O344      0.69828      .   S
    C121   O345      0.69855      .   S
    C120   O345      0.69855      .   S
    C136   O346      0.73320      .   S
    C137   O346      0.73320      .   S
    C136   O347      0.64436      .   S
    C249   O347      0.64436      .   S
    C93    O348      0.69824      .   S
    C98    O348      0.69824      .   S
    C263   O349      0.81229      .   S
    C172   O349      0.81229      .   S
    C122   O350      0.69824      .   S
    C117   O350      0.69824      .   S
    C17    O351      0.54522      .   S
    C94    O351      0.54522      .   S
    C147   O352      0.71593      .   S
    C139   O352      0.71593      .   S
    C137   O353      0.70343      .   S
    C138   O353      0.70343      .   S
    C264   O354      0.35414      .   S
    C172   O354      0.35414  1_455   S
    C31    O355      0.46918      .   S
    C120   O355      0.46918      .   S
    C112   O356      0.64078      .   S
    C242   O356      0.64078      .   S
    C112   O357      0.73286      .   S
    C113   O357      0.73286      .   S
    C94    O358      0.69790      .   S
    C95    O358      0.69790      .   S
    C120   O359      0.69881      .   S
    C119   O359      0.69881      .   S
    C172   O360      0.80399      .   S
    C173   O360      0.80399      .   S
    C21    O361      0.54526      .   S
    C98    O361      0.54526      .   S
    C98    O362      0.69835      .   S
    C97    O362      0.69835      .   S
    C242   O363      0.99222      .   S
    C3     O363      0.99222      .   S
    C3     O364      0.97775      .   S
    C249   O364      0.97775      .   S
    C3     O365      0.98905      .   S
    C245   O365      0.98905      .   S
    C117   O366      0.71685      .   S
    C113   O366      0.71685      .   S
    C117   O367      0.73974      .   S
    C116   O367      0.73974      .   S
    C113   O368      0.70293      .   S
    C114   O368      0.70293      .   S
    C95    O369      0.54644      .   S
    C18    O369      0.54644      .   S
    C95    O370      0.69890      .   S
    C96    O370      0.69890      .   S
    C138   O371      0.70268      .   S
    C139   O371      0.70268      .   S
    C138   O372      0.54253      .   S
    C40    O372      0.54253      .   S
    C139   O373      0.73282      .   S
    C140   O373      0.73282      .   S
    C246   O374      0.64352      .   S
    C124   O374      0.64352      .   S
    C97    O375      0.69833      .   S
    C96    O375      0.69833      .   S
    C97    O376      0.54530      .   S
    C20    O376      0.54530      .   S
    C96    O377      0.54628      .   S
    C19    O377      0.54628      .   S
    C119   O378      0.43682      .   S
    C30    O378      0.43682  1_455   S
    C119   O379      0.69833      .   S
    C118   O379      0.69833      .   S
    C63    O380      0.54546      .   S
    C182   O380      0.54546      .   S
    C173   O381      0.70223      .   S
    C174   O381      0.70223      .   S
    C173   O382      0.68581      .   S
    C177   O382      0.68581      .   S
    C58    O383      0.54255      .   S
    C174   O383      0.54255      .   S
    C116   O384      0.69866      .   S
    C118   O384      0.69866      .   S
    C116   O385      0.71702      .   S
    C115   O385      0.71702      .   S
    C245   O386      0.64442      .   S
    C124   O386      0.64442      .   S
    C124   O387      0.73117      .   S
    C125   O387      0.73117      .   S
    C85    O388      0.54634      .   S
    C228   O388      0.54634      .   S
    C114   O389      0.54242      .   S
    C28    O389      0.54242      .   S
    C114   O390      0.70239      .   S
    C115   O390      0.70239      .   S
    C140   O391      0.64464      .   S
    C252   O391      0.64464      .   S
    C140   O392      0.64159      .   S
    C251   O392      0.64159      .   S
    C174   O393      0.70252      .   S
    C175   O393      0.70252      .   S
    C118   O394      0.54520      .   S
    C29    O394      0.54520      .   S
    C252   O395      0.99098      .   S
    C5     O395      0.99098      .   S
    C84    O396      0.54546      .   S
    C227   O396      0.54546      .   S
    C34    O397      0.50609      .   S
    C126   O397      0.50609      .   S
    C182   O398      0.61273      .   S
    C177   O398      0.61273  1_455   S
    C182   O399      0.69834      .   S
    C181   O399      0.69834      .   S
    C177   O400      0.71162      .   S
    C176   O400      0.71162      .   S
    C228   O401      0.69856      .   S
    C227   O401      0.69856      .   S
    C228   O402      0.69878      .   S
    C229   O402      0.69878      .   S
    C115   O403      0.73330      .   S
    C123   O403      0.73330      .   S
    C86    O404      0.54628      .   S
    C229   O404      0.54628      .   S
    C227   O405      0.69832      .   S
    C226   O405      0.69832      .   S
    C125   O406      0.70297      .   S
    C126   O406      0.70297      .   S
    C125   O407      0.71666      .   S
    C129   O407      0.71666      .   S
    C62    O408      0.54636      .   S
    C181   O408      0.54636      .   S
    C251   O409      0.99238      .   S
    C4     O409      0.99238      .   S
    C126   O410      0.64316  1_545   S
    C127   O410      0.64316      .   S
    C229   O411      0.69827      .   S
    C230   O411      0.69827      .   S
    C181   O412      0.69862      .   S
    C180   O412      0.69862      .   S
    C175   O413      0.71582      .   S
    C176   O413      0.71582      .   S
    C175   O414      0.73248      .   S
    C183   O414      0.73248      .   S
    C39    O415      0.54497      .   S
    C134   O415      0.54497      .   S
    C248   O416      0.97954      .   S
    C5     O416      0.97954      .   S
    C248   O417      0.64356      .   S
    C135   O417      0.64356      .   S
    C265   O418      0.98556      .   S
    C5     O418      0.98556      .   S
    C265   O419      0.64172      .   S
    C183   O419      0.64172      .   S
    C176   O420      0.69825      .   S
    C178   O420      0.69825      .   S
    C226   O421      0.54541      .   S
    C83    O421      0.54541      .   S
    C226   O422      0.69813      .   S
    C224   O422      0.69813      .   S
    C123   O423      0.64224      .   S
    C243   O423      0.64224      .   S
    C123   O424      0.64350      .   S
    C244   O424      0.64350      .   S
    C129   O425      0.69771      .   S
    C134   O425      0.69771      .   S
    C129   O426      0.73949      .   S
    C128   O426      0.73949      .   S
    C230   O427      0.54529      .   S
    C87    O427      0.54529      .   S
    C230   O428      0.69856      .   S
    C225   O428      0.69856      .   S
    C127   O429      0.73306      .   S
    C135   O429      0.73306      .   S
    C127   O430      0.63594      .   S
    C128   O430      0.63594  1_545   S
    C183   O431      0.64417      .   S
    C266   O431      0.64417      .   S
    C134   O432      0.69828      .   S
    C133   O432      0.69828      .   S
    C243   O433      0.98800      .   S
    C15    O433      0.98800      .   S
    C135   O434      0.64170      .   S
    C247   O434      0.64170      .   S
    C244   O435      0.98240      .   S
    C6     O435      0.98240      .   S
    C224   O436      0.74022      .   S
    C225   O436      0.74022      .   S
    C224   O437      0.71703      .   S
    C223   O437      0.71703      .   S
    C180   O438      0.54618      .   S
    C61    O438      0.54618      .   S
    C180   O439      0.69851      .   S
    C179   O439      0.69851      .   S
    C225   O440      0.71636      .   S
    C221   O440      0.71636      .   S
    C128   O441      0.69212      .   S
    C130   O441      0.69212      .   S
    C4     O442      0.98719      .   S
    C282   O442      0.98719      .   S
    C4     O443      0.97811      .   S
    C255   O443      0.97811      .   S
    C178   O444      0.57486  1_455   S
    C179   O444      0.57486      .   S
    C178   O445      0.54548      .   S
    C59    O445      0.54548      .   S
    C282   O446      0.64454      .   S
    C231   O446      0.64454      .   S
    C38    O447      0.54477      .   S
    C133   O447      0.54477      .   S
    C72    O448      0.51942  1_545   S
    C203   O448      0.51942      .   S
    C133   O449      0.69807      .   S
    C132   O449      0.69807      .   S
    C266   O450      0.98957      .   S
    C14    O450      0.98957      .   S
    C179   O451      0.54599      .   S
    C60    O451      0.54599      .   S
    C253   O452      0.98200      .   S
    C14    O452      0.98200      .   S
    C253   O453      0.97949      .   S
    C7     O453      0.97949      .   S
    C223   O454      0.73345      .   S
    C231   O454      0.73345      .   S
    C223   O455      0.70326      .   S
    C222   O455      0.70326      .   S
    C247   O456      0.99055      .   S
    C7     O456      0.99055      .   S
    C221   O457      0.70262      .   S
    C222   O457      0.70262      .   S
    C221   O458      0.73442      .   S
    C220   O458      0.73442      .   S
    C231   O459      0.64100      .   S
    C283   O459      0.64100      .   S
    C73    O460      0.54624      .   S
    C204   O460      0.54624      .   S
    C280   O461      0.64257      .   S
    C220   O461      0.64257      .   S
    C280   O462      0.86460  1_455   S
    C15    O462      0.86460      .   S
    C255   O463      0.64248      .   S
    C148   O463      0.64248      .   S
    C46    O464      0.54267      .   S
    C150   O464      0.54267      .   S
    C130   O465      0.45560  1_545   S
    C35    O465      0.45560      .   S
    C130   O466      0.66785      .   S
    C131   O466      0.66785      .   S
    C222   O467      0.54267      .   S
    C82    O467      0.54267      .   S
    C203   O468      0.69854      .   S
    C204   O468      0.69854      .   S
    C203   O469      0.63775      .   S
    C202   O469      0.63775  1_545   S
    C220   O470      0.64249      .   S
    C281   O470      0.64249      .   S
    C257   O471      0.98895      .   S
    C6     O471      0.98895      .   S
    C257   O472      0.63814      .   S
    C159   O472      0.63814      .   S
    C15    O473      0.99123      .   S
    C273   O473      0.99123      .   S
    C15    O474      0.97928      .   S
    C279   O474      0.97928      .   S
    C132   O475      0.69856      .   S
    C131   O475      0.69856      .   S
    C132   O476      0.54629      .   S
    C37    O476      0.54629      .   S
    C24    O477      0.54669      .   S
    C107   O477      0.54669      .   S
    C6     O478      0.98194      .   S
    C279   O478      0.98194      .   S
    C6     O479      0.98973      .   S
    C240   O479      0.98973      .   S
    C71    O480      0.54589      .   S
    C202   O480      0.54589      .   S
    C14    O481      0.98871      .   S
    C283   O481      0.98871      .   S
    C14    O482      0.98336      .   S
    C270   O482      0.98336      .   S
    C204   O483      0.69815      .   S
    C205   O483      0.69815      .   S
    C7     O484      0.98545      .   S
    C254   O484      0.98545      .   S
    C7     O485      0.98808      .   S
    C269   O485      0.98808      .   S
    C148   O486      0.64239      .   S
    C254   O486      0.64239      .   S
    C148   O487      0.73422      .   S
    C149   O487      0.73422      .   S
    C131   O488      0.54631      .   S
    C36    O488      0.54631      .   S
    C150   O489      0.70229      .   S
    C149   O489      0.70229      .   S
    C150   O490      0.70316      .   S
    C151   O490      0.70316      .   S
    C202   O491      0.67514      .   S
    C200   O491      0.67514      .   S
    C281   O492      0.85238  1_455   S
    C12    O492      0.85238      .   S
    C159   O493      0.73376      .   S
    C151   O493      0.73376      .   S
    C159   O494      0.64675      .   S
    C256   O494      0.64675      .   S
    C23    O495      0.54550      .   S
    C106   O495      0.54550      .   S
    C149   O496      0.71688      .   S
    C153   O496      0.71688      .   S
    C273   O497      0.64168      .   S
    C207   O497      0.64168      .   S
    C151   O498      0.71668      .   S
    C152   O498      0.71668      .   S
    C107   O499      0.69865      .   S
    C106   O499      0.69865      .   S
    C107   O500      0.69853      .   S
    C108   O500      0.69853      .   S
    C240   O501      0.64438      .   S
    C111   O501      0.64438      .   S
    C205   O502      0.54471      .   S
    C74    O502      0.54471      .   S
    C205   O503      0.69788      .   S
    C206   O503      0.69788      .   S
    C25    O504      0.54618      .   S
    C108   O504      0.54618      .   S
    C256   O505      0.98601      .   S
    C12    O505      0.98601      .   S
    C106   O506      0.69804      .   S
    C104   O506      0.69804      .   S
    C12    O507      0.99463      .   S
    C277   O507      0.99463      .   S
    C200   O508      0.56130      .   S
    C199   O508      0.56130  1_655   S
    C200   O509      0.71167  1_545   S
    C201   O509      0.71167      .   S
    C153   O510      0.74019      .   S
    C152   O510      0.74019      .   S
    C153   O511      0.69850      .   S
    C158   O511      0.69850      .   S
    C108   O512      0.69860      .   S
    C109   O512      0.69860      .   S
    C152   O513      0.69848      .   S
    C154   O513      0.69848      .   S
    C270   O514      0.64351      .   S
    C195   O514      0.64351      .   S
    C207   O515      0.73345      .   S
    C199   O515      0.73345      .   S
    C207   O516      0.64359      .   S
    C274   O516      0.64359      .   S
    C269   O517      0.64227      .   S
    C195   O517      0.64227      .   S
    C51    O518      0.54529      .   S
    C158   O518      0.54529      .   S
    C206   O519      0.69762      .   S
    C201   O519      0.69762      .   S
    C206   O520      0.54522      .   S
    C75    O520      0.54522      .   S
    C111   O521      0.64151      .   S
    C239   O521      0.64151      .   S
    C111   O522      0.73260      .   S
    C103   O522      0.73260      .   S
    C199   O523      0.67524      .   S
    C198   O523      0.67524      .   S
    C158   O524      0.69841      .   S
    C157   O524      0.69841      .   S
    C201   O525      0.63127      .   S
    C197   O525      0.63127  1_655   S
    C195   O526      0.73356      .   S
    C187   O526      0.73356      .   S
    C47    O527      0.54538      .   S
    C154   O527      0.54538      .   S
    C154   O528      0.69834      .   S
    C155   O528      0.69834      .   S
    C13    O529      0.98640      .   S
    C239   O529      0.98640      .   S
    C13    O530      0.97954      .   S
    C274   O530      0.97954      .   S
    C13    O531      0.99057      .   S
    C278   O531      0.99057      .   S
    C104   O532      0.71581      .   S
    C103   O532      0.71581      .   S
    C104   O533      0.74129      .   S
    C105   O533      0.74129      .   S
    C103   O534      0.70249      .   S
    C102   O534      0.70249      .   S
    C109   O535      0.54634      .   S
    C26    O535      0.54634      .   S
    C109   O536      0.69840      .   S
    C110   O536      0.69840      .   S
    C157   O537      0.54628      .   S
    C50    O537      0.54628      .   S
    C157   O538      0.69879      .   S
    C156   O538      0.69879      .   S
    C65    O539      0.54506      .   S
    C190   O539      0.54506      .   S
    C198   O540      0.61609  1_545   S
    C197   O540      0.61609      .   S
    C198   O541      0.53254      .   S
    C70    O541      0.53254      .   S
    C277   O542      0.64167      .   S
    C212   O542      0.64167      .   S
    C197   O543      0.73251      .   S
    C196   O543      0.73251      .   S
    C155   O544      0.69854      .   S
    C156   O544      0.69854      .   S
    C155   O545      0.54550      .   S
    C48    O545      0.54550      .   S
    C187   O546      0.70242      .   S
    C186   O546      0.70242      .   S
    C187   O547      0.71713      .   S
    C188   O547      0.71713      .   S
    C156   O548      0.54639      .   S
    C49    O548      0.54639      .   S
    C105   O549      0.69826      .   S
    C110   O549      0.69826      .   S
    C105   O550      0.71639      .   S
    C101   O550      0.71639      .   S
    C110   O551      0.54542      .   S
    C27    O551      0.54542      .   S
    C64    O552      0.54268      .   S
    C186   O552      0.54268      .   S
    C190   O553      0.69879      .   S
    C188   O553      0.69879      .   S
    C190   O554      0.69841      .   S
    C191   O554      0.69841      .   S
    C278   O555      0.64457      .   S
    C212   O555      0.64457      .   S
    C55    O556      0.54632      .   S
    C168   O556      0.54632      .   S
    C102   O557      0.54250      .   S
    C22    O557      0.54250      .   S
    C102   O558      0.70227      .   S
    C101   O558      0.70227      .   S
    C212   O559      0.73293      .   S
    C211   O559      0.73293      .   S
    C186   O560      0.70320      .   S
    C185   O560      0.70320      .   S
    C196   O561      0.58273      .   S
    C271   O561      0.58273  1_455   S
    C196   O562      0.64360      .   S
    C272   O562      0.64360      .   S
    C66    O563      0.54631      .   S
    C191   O563      0.54631      .   S
    C271   O564      0.99445      .   S
    C11    O564      0.99445      .   S
    C188   O565      0.73962      .   S
    C189   O565      0.73962      .   S
    C76    O566      0.54254      .   S
    C210   O566      0.54254      .   S
    C56    O567      0.43119  1_655   S
    C169   O567      0.43119      .   S
    C101   O568      0.73351      .   S
    C100   O568      0.73351      .   S
    C191   O569      0.69881      .   S
    C192   O569      0.69881      .   S
    C168   O570      0.69833      .   S
    C169   O570      0.69833      .   S
    C168   O571      0.69874      .   S
    C167   O571      0.69874      .   S
    C54    O572      0.54632      .   S
    C167   O572      0.54632      .   S
    C169   O573      0.69830      .   S
    C170   O573      0.69830      .   S
    C272   O574      0.99084      .   S
    C8     O574      0.99084      .   S
    C211   O575      0.70261      .   S
    C210   O575      0.70261      .   S
    C211   O576      0.71604      .   S
    C219   O576      0.71604      .   S
    C210   O577      0.70294      .   S
    C209   O577      0.70294      .   S
    C167   O578      0.69817      .   S
    C166   O578      0.69817      .   S
    C185   O579      0.71706      .   S
    C189   O579      0.71706      .   S
    C185   O580      0.73290      .   S
    C184   O580      0.73290      .   S
    C189   O581      0.69825      .   S
    C194   O581      0.69825      .   S
    C275   O582      0.92182      .   S
    C11    O582      0.92182  1_455   S
    C275   O583      0.64443      .   S
    C208   O583      0.64443      .   S
    C11    O584      0.99086      .   S
    C268   O584      0.99086      .   S
    C170   O585      0.49057      .   S
    C57    O585      0.49057      .   S
    C170   O586      0.69826      .   S
    C165   O586      0.69826      .   S
    C268   O587      0.64150      .   S
    C184   O587      0.64150      .   S
    C100   O588      0.64228      .   S
    C238   O588      0.64228      .   S
    C100   O589      0.64332      .   S
    C237   O589      0.64332      .   S
    C192   O590      0.45176  1_565   S
    C67    O590      0.45176      .   S
    C192   O591      0.69840      .   S
    C193   O591      0.69840      .   S
    C81    O592      0.54547      .   S
    C218   O592      0.54547      .   S
    C166   O593      0.54523      .   S
    C53    O593      0.54523      .   S
    C166   O594      0.69855      .   S
    C164   O594      0.69855      .   S
    C184   O595      0.64517      .   S
    C267   O595      0.64517      .   S
    C42    O596      0.54623      .   S
    C143   O596      0.54623      .   S
    C209   O597      0.73329      .   S
    C208   O597      0.73329      .   S
    C209   O598      0.71674      .   S
    C213   O598      0.71674      .   S
    C219   O599      0.69842      .   S
    C218   O599      0.69842      .   S
    C219   O600      0.74034      .   S
    C213   O600      0.74034      .   S
    C194   O601      0.69834      .   S
    C193   O601      0.69834      .   S
    C194   O602      0.54535      .   S
    C69    O602      0.54535      .   S
    C43    O603      0.54642      .   S
    C144   O603      0.54642      .   S
    C165   O604      0.73978      .   S
    C164   O604      0.73978      .   S
    C165   O605      0.71347      .   S
    C161   O605      0.71347      .   S
    C208   O606      0.64233      .   S
    C276   O606      0.64233      .   S
    C193   O607      0.52787      .   S
    C68    O607      0.52787  1_545   S
    C218   O608      0.58050      .   S
    C217   O608      0.58050      .   S
    C164   O609      0.71681      .   S
    C163   O609      0.71681      .   S
    C8     O610      0.92854      .   S
    C259   O610      0.92854  1_445   S
    C8     O611      0.97981      .   S
    C235   O611      0.97981      .   S
    C259   O612      0.58009      .   S
    C160   O612      0.58009      .   S
    C143   O613      0.69829      .   S
    C144   O613      0.69829      .   S
    C161   O614      0.67172      .   S
    C160   O614      0.67172      .   S
    C217   O615      0.54597      .   S
    C80    O615      0.54597      .   S
    C232   O616      0.98123      .   S
    C0     O616      0.98123      .   S
    C232   O617      0.98117      .   S
    C3     O617      0.98117      .   S
    C253   O618      0.98321      .   S
    C4     O618      0.98321      .   S
    C253   O619      0.98417      .   S
    C5     O619      0.98417      .   S
    C258   O620      0.97628  1_455   S
    C8     O620      0.97628      .   S
    C258   O621      0.95882      .   S
    C11    O621      0.95882      .   S
    C279   O622      0.98355      .   S
    C12    O622      0.98355      .   S
    C279   O623      0.98400      .   S
    C13    O623      0.98400      .   S
