# CIF file generated by openbabel 2.4.90, see http://openbabel.sf.net
data_I
_chemical_name_common ''
_cell_length_a 12.563
_cell_length_b 12.561
_cell_length_c 25.828
_cell_angle_alpha 90
_cell_angle_beta 90
_cell_angle_gamma 89.992
_space_group_name_H-M_alt 'P 1'
_space_group_name_Hall 'P 1'
loop_
    _symmetry_equiv_pos_as_xyz
    x,y,z
loop_
    _atom_site_label
    _atom_site_type_symbol
    _atom_site_fract_x
    _atom_site_fract_y
    _atom_site_fract_z
    _atom_site_occupancy
    Zr0     Zr   0.75001   0.75002   0.91625   1.000
    Zr1     Zr   0.25000   0.25000   0.41624   1.000
    Zr2     Zr   0.25000   0.25001   0.08376   1.000
    Zr3     Zr   0.75001   0.75002   0.58377   1.000
    N4      N    0.75001   0.25001   0.66697   1.000
    O5      O    0.96562   0.24442   0.55968   1.000
    O6      O    0.53439   0.25559   0.55968   1.000
    O7      O    0.74467   0.03496   0.77346   1.000
    O8      O    0.75535   0.46508   0.77346   1.000
    N9      N    0.25000   0.75002   0.83305   1.000
    O10     O    0.24441   0.53439   0.94034   1.000
    O11     O    0.46506   0.74468   0.72657   1.000
    O12     O    0.03496   0.75536   0.72657   1.000
    O13     O    0.25560   0.96564   0.94034   1.000
    N14     N    0.25000   0.75002   0.33303   1.000
    O15     O    0.25534   0.96507   0.22653   1.000
    O16     O    0.24466   0.53495   0.22655   1.000
    O17     O    0.03439   0.75561   0.44033   1.000
    O18     O    0.46562   0.74444   0.44033   1.000
    N19     N    0.75001   0.25001   0.16693   1.000
    O20     O    0.96506   0.24467   0.27342   1.000
    O21     O    0.74442   0.03440   0.05966   1.000
    O22     O    0.53496   0.25535   0.27342   1.000
    O23     O    0.75560   0.46564   0.05966   1.000
    N24     N    0.52966   0.75145   0.91905   1.000
    O25     O    0.58988   0.73997   0.91565   1.000
    N26     N    0.02965   0.25143   0.08096   1.000
    O27     O    0.08987   0.23995   0.08436   1.000
    N28     N    0.75145   0.97034   0.58096   1.000
    O29     O    0.73996   0.91013   0.58435   1.000
    N30     N    0.47035   0.24859   0.08097   1.000
    O31     O    0.41013   0.26007   0.08436   1.000
    N32     N    0.24856   0.02969   0.41902   1.000
    O33     O    0.26005   0.08989   0.41563   1.000
    N34     N    0.74856   0.52971   0.58099   1.000
    O35     O    0.76005   0.58991   0.58437   1.000
    N36     N    0.25145   0.47032   0.41902   1.000
    O37     O    0.23996   0.41012   0.41563   1.000
    N38     N    0.97036   0.74861   0.91905   1.000
    O39     O    0.91014   0.76009   0.91565   1.000
loop_
    _geom_bond_atom_site_label_1
    _geom_bond_atom_site_label_2
    _geom_bond_distance
    _geom_bond_site_symmetry_2
    _ccdc_geom_bond_type
    N4     O5        3.87567      .   S
    Zr1    O5        5.14726  1_455   S
    N4     O6        3.87572      .   S
    Zr1    O6        5.14731      .   S
    N4     O7        3.85565      .   S
    Zr0    O7        5.13965  1_565   S
    N4     O8        3.85578      .   S
    Zr0    O8        5.13976      .   S
    N9     O10       3.87547      .   S
    Zr2    O10       5.14655  1_554   S
    N9     O11       3.85580      .   S
    Zr3    O11       5.14036      .   S
    N9     O12       3.85579      .   S
    Zr3    O12       5.14029  1_655   S
    N9     O13       3.87537      .   S
    Zr2    O13       5.14644  1_544   S
    N14    O15       3.85590      .   S
    Zr2    O15       5.13924  1_545   S
    N14    O16       3.85569      .   S
    Zr2    O16       5.13967      .   S
    N14    O17       3.87575      .   S
    Zr3    O17       5.14734  1_655   S
    N14    O18       3.87580      .   S
    Zr3    O18       5.14741      .   S
    N19    O20       3.85603      .   S
    Zr1    O20       5.14059  1_455   S
    N19    O21       3.87510      .   S
    Zr0    O21       5.14616  1_566   S
    N19    O22       3.85606      .   S
    Zr1    O22       5.14065      .   S
    N19    O23       3.87521      .   S
    Zr0    O23       5.14626  1_556   S
    N24    O25       0.77508      .   S
    Zr0    O25       2.01580      .   S
    N26    O27       0.77509      .   S
    Zr2    O27       2.01580      .   S
    N28    O29       0.77484      .   S
    Zr3    O29       2.01517      .   S
    N30    O31       0.77508      .   S
    Zr2    O31       2.01580      .   S
    N32    O33       0.77484      .   S
    Zr1    O33       2.01517      .   S
    N34    O35       0.77483      .   S
    Zr3    O35       2.01517      .   S
    N36    O37       0.77483      .   S
    Zr1    O37       2.01517      .   S
    N38    O39       0.77509      .   S
    Zr0    O39       2.01580      .   S
