# CIF file generated by openbabel 2.4.90, see http://openbabel.sf.net
data_I
_chemical_name_common ''
_cell_length_a 12.563
_cell_length_b 12.561
_cell_length_c 25.828
_cell_angle_alpha 90
_cell_angle_beta 90
_cell_angle_gamma 89.992
_space_group_name_H-M_alt 'P 1'
_space_group_name_Hall 'P 1'
loop_
    _symmetry_equiv_pos_as_xyz
    x,y,z
loop_
    _atom_site_label
    _atom_site_type_symbol
    _atom_site_fract_x
    _atom_site_fract_y
    _atom_site_fract_z
    _atom_site_occupancy
    C0      C    0.75001   0.75002   0.91625   1.000
    C1      C    0.25000   0.25000   0.41624   1.000
    C2      C    0.25000   0.25001   0.08376   1.000
    C3      C    0.75001   0.75002   0.58377   1.000
    C4      C    0.91645   0.55839   0.87181   1.000
    C5      C    0.93536   0.40878   0.80794   1.000
    C6      C    0.63689   0.51263   0.74083   1.000
    C7      C    0.62911   0.65167   0.80901   1.000
    C8      C    0.64265   0.32773   0.71984   1.000
    C9      C    0.70583   0.41620   0.67411   1.000
    C10     C    0.59519   0.17441   0.65500   1.000
    C11     C    0.68596   0.15662   0.60282   1.000
    C12     C    0.42013   0.11150   0.48727   1.000
    C13     C    0.55449   0.11677   0.55840   1.000
    C14     C    0.49777   0.45685   0.56774   1.000
    C15     C    0.36338   0.43470   0.49727   1.000
    C16     C    0.50914   0.79596   0.92982   1.000
    C17     C    0.58358   0.94168   0.87182   1.000
    C18     C    0.56467   0.09125   0.80790   1.000
    C19     C    0.86312   0.98741   0.74082   1.000
    C20     C    0.87089   0.84837   0.80900   1.000
    C21     C    0.85738   0.17228   0.71984   1.000
    C22     C    0.79419   0.08381   0.67411   1.000
    C23     C    0.90484   0.32560   0.65500   1.000
    C24     C    0.81407   0.34340   0.60282   1.000
    C25     C    0.07987   0.38851   0.48727   1.000
    C26     C    0.94554   0.38324   0.55840   1.000
    C27     C    0.00224   0.04316   0.56774   1.000
    C28     C    0.13662   0.06531   0.49727   1.000
    C29     C    0.99088   0.70411   0.92983   1.000
    C30     C    0.44176   0.41638   0.37183   1.000
    C31     C    0.59132   0.43531   0.30796   1.000
    C32     C    0.48736   0.13697   0.24073   1.000
    C33     C    0.34835   0.12917   0.30891   1.000
    C34     C    0.67231   0.14263   0.21979   1.000
    C35     C    0.58385   0.20585   0.17407   1.000
    C36     C    0.82562   0.09515   0.15496   1.000
    C37     C    0.84336   0.18591   0.10277   1.000
    C38     C    0.88845   0.92011   0.98723   1.000
    C39     C    0.88320   0.05442   0.05836   1.000
    C40     C    0.54317   0.99776   0.06773   1.000
    C41     C    0.56532   0.86338   0.99727   1.000
    C42     C    0.20404   0.00919   0.42979   1.000
    C43     C    0.05826   0.08363   0.37183   1.000
    C44     C    0.90871   0.06470   0.30795   1.000
    C45     C    0.01264   0.36304   0.24073   1.000
    C46     C    0.15166   0.37084   0.30891   1.000
    C47     C    0.82771   0.35738   0.21979   1.000
    C48     C    0.91617   0.29417   0.17407   1.000
    C49     C    0.67441   0.40487   0.15490   1.000
    C50     C    0.65666   0.31410   0.10277   1.000
    C51     C    0.61157   0.57995   0.98724   1.000
    C52     C    0.61682   0.44561   0.05836   1.000
    C53     C    0.95684   0.50228   0.06770   1.000
    C54     C    0.93470   0.63665   0.99726   1.000
    C55     C    0.29596   0.49082   0.42979   1.000
    C56     C    0.08357   0.44166   0.12819   1.000
    C57     C    0.06466   0.59126   0.19200   1.000
    C58     C    0.36311   0.48739   0.25919   1.000
    C59     C    0.37089   0.34835   0.19100   1.000
    C60     C    0.35736   0.67229   0.28017   1.000
    C61     C    0.29418   0.58383   0.32590   1.000
    C62     C    0.40483   0.82562   0.34500   1.000
    C63     C    0.31405   0.84342   0.39719   1.000
    C64     C    0.57988   0.88853   0.51274   1.000
    C65     C    0.44553   0.88326   0.44161   1.000
    C66     C    0.50224   0.54318   0.43227   1.000
    C67     C    0.63662   0.56533   0.50274   1.000
    C68     C    0.49087   0.20410   0.07018   1.000
    C69     C    0.41644   0.05837   0.12820   1.000
    C70     C    0.43535   0.90880   0.19207   1.000
    C71     C    0.13688   0.01261   0.25918   1.000
    C72     C    0.12911   0.15166   0.19100   1.000
    C73     C    0.14264   0.82776   0.28017   1.000
    C74     C    0.20582   0.91622   0.32590   1.000
    C75     C    0.09517   0.67443   0.34500   1.000
    C76     C    0.18595   0.65664   0.39719   1.000
    C77     C    0.92013   0.61152   0.51274   1.000
    C78     C    0.05447   0.61679   0.44161   1.000
    C79     C    0.99777   0.95687   0.43227   1.000
    C80     C    0.86339   0.93472   0.50274   1.000
    C81     C    0.00913   0.29594   0.07018   1.000
    C82     C    0.55826   0.58365   0.62818   1.000
    C83     C    0.40869   0.56472   0.69206   1.000
    C84     C    0.51265   0.86306   0.75928   1.000
    C85     C    0.65167   0.87086   0.69110   1.000
    C86     C    0.32770   0.85740   0.78022   1.000
    C87     C    0.41616   0.79418   0.82594   1.000
    C88     C    0.17440   0.90489   0.84504   1.000
    C89     C    0.15665   0.81412   0.89720   1.000
    C90     C    0.11156   0.07994   0.01277   1.000
    C91     C    0.11681   0.94562   0.94165   1.000
    C92     C    0.45684   0.00225   0.93220   1.000
    C93     C    0.43469   0.13664   0.00275   1.000
    C94     C    0.79597   0.99083   0.57022   1.000
    C95     C    0.94176   0.91639   0.62818   1.000
    C96     C    0.09131   0.93533   0.69205   1.000
    C97     C    0.98737   0.63699   0.75928   1.000
    C98     C    0.84836   0.62918   0.69109   1.000
    C99     C    0.17230   0.64265   0.78022   1.000
    C100    C    0.08384   0.70587   0.82594   1.000
    C101    C    0.32560   0.59517   0.84504   1.000
    C102    C    0.34335   0.68593   0.89724   1.000
    C103    C    0.38844   0.42010   0.01278   1.000
    C104    C    0.38319   0.55444   0.94165   1.000
    C105    C    0.04317   0.49775   0.93228   1.000
    C106    C    0.06531   0.36337   0.00274   1.000
    C107    C    0.70405   0.50921   0.57022   1.000
    C108    C    0.85546   0.54365   0.84250   1.000
    C109    C    0.86684   0.46192   0.80695   1.000
    C110    C    0.78711   0.44759   0.76941   1.000
    C111    C    0.70027   0.51763   0.76936   1.000
    C112    C    0.69623   0.59659   0.80725   1.000
    C113    C    0.71673   0.34570   0.69886   1.000
    C114    C    0.65662   0.21409   0.63153   1.000
    C115    C    0.44032   0.18655   0.50636   1.000
    C116    C    0.51508   0.19000   0.54622   1.000
    C117    C    0.53795   0.28908   0.56864   1.000
    C118    C    0.48286   0.37903   0.55064   1.000
    C119    C    0.40895   0.36658   0.51129   1.000
    C120    C    0.64457   0.95640   0.84259   1.000
    C121    C    0.63319   0.03810   0.80695   1.000
    C122    C    0.71291   0.05242   0.76941   1.000
    C123    C    0.79975   0.98241   0.76936   1.000
    C124    C    0.80378   0.90346   0.80724   1.000
    C125    C    0.78329   0.15431   0.69886   1.000
    C126    C    0.84341   0.28592   0.63153   1.000
    C127    C    0.05969   0.31346   0.50636   1.000
    C128    C    0.98494   0.31002   0.54622   1.000
    C129    C    0.96208   0.21093   0.56864   1.000
    C130    C    0.01714   0.12098   0.55064   1.000
    C131    C    0.09106   0.13343   0.51129   1.000
    C132    C    0.45644   0.35542   0.34258   1.000
    C133    C    0.53817   0.36681   0.30694   1.000
    C134    C    0.55246   0.28712   0.26937   1.000
    C135    C    0.48240   0.20031   0.26930   1.000
    C136    C    0.40345   0.19626   0.30718   1.000
    C137    C    0.65434   0.21673   0.19882   1.000
    C138    C    0.78592   0.15659   0.13149   1.000
    C139    C    0.81341   0.94031   0.00632   1.000
    C140    C    0.80999   0.01503   0.04619   1.000
    C141    C    0.71092   0.03790   0.06861   1.000
    C142    C    0.62097   0.98286   0.05062   1.000
    C143    C    0.63342   0.90894   0.01127   1.000
    C144    C    0.04357   0.14459   0.34257   1.000
    C145    C    0.96186   0.13321   0.30694   1.000
    C146    C    0.94757   0.21289   0.26937   1.000
    C147    C    0.01761   0.29971   0.26900   1.000
    C148    C    0.09656   0.30375   0.30718   1.000
    C149    C    0.84568   0.28328   0.19882   1.000
    C150    C    0.71410   0.34343   0.13149   1.000
    C151    C    0.68660   0.55975   0.00632   1.000
    C152    C    0.69003   0.48499   0.04619   1.000
    C153    C    0.78910   0.46211   0.06861   1.000
    C154    C    0.87904   0.51719   0.05062   1.000
    C155    C    0.86659   0.59110   0.01120   1.000
    C156    C    0.75001   0.25001   0.66556   1.000
    C157    C    0.75001   0.25001   0.16552   1.000
    C158    C    0.14456   0.45638   0.15742   1.000
    C159    C    0.13318   0.53812   0.19306   1.000
    C160    C    0.21290   0.55244   0.23060   1.000
    C161    C    0.29974   0.48240   0.23065   1.000
    C162    C    0.30377   0.40344   0.19270   1.000
    C163    C    0.28328   0.65434   0.30115   1.000
    C164    C    0.34340   0.78594   0.36848   1.000
    C165    C    0.55969   0.81347   0.49365   1.000
    C166    C    0.48493   0.81003   0.45370   1.000
    C167    C    0.46206   0.71095   0.43137   1.000
    C168    C    0.51715   0.62100   0.44937   1.000
    C169    C    0.59106   0.63345   0.48872   1.000
    C170    C    0.35545   0.04364   0.15742   1.000
    C171    C    0.36682   0.96194   0.19306   1.000
    C172    C    0.28710   0.94761   0.23060   1.000
    C173    C    0.20026   0.01761   0.23060   1.000
    C174    C    0.19622   0.09657   0.19276   1.000
    C175    C    0.21672   0.84571   0.30115   1.000
    C176    C    0.15660   0.71411   0.36848   1.000
    C177    C    0.94032   0.68657   0.49364   1.000
    C178    C    0.01506   0.69001   0.45378   1.000
    C179    C    0.03793   0.78910   0.43137   1.000
    C180    C    0.98286   0.87905   0.44937   1.000
    C181    C    0.90895   0.86660   0.48872   1.000
    C182    C    0.54358   0.64461   0.65740   1.000
    C183    C    0.46185   0.63322   0.69307   1.000
    C184    C    0.44756   0.71291   0.73064   1.000
    C185    C    0.51762   0.79972   0.73071   1.000
    C186    C    0.59657   0.80376   0.69283   1.000
    C187    C    0.34566   0.78330   0.80119   1.000
    C188    C    0.21409   0.84345   0.86852   1.000
    C189    C    0.18660   0.05973   0.99360   1.000
    C190    C    0.19002   0.98501   0.95382   1.000
    C191    C    0.28909   0.96213   0.93100   1.000
    C192    C    0.37904   0.01717   0.94939   1.000
    C193    C    0.36659   0.09108   0.98870   1.000
    C194    C    0.95645   0.85544   0.65743   1.000
    C195    C    0.03816   0.86682   0.69307   1.000
    C196    C    0.05245   0.78714   0.73064   1.000
    C197    C    0.98240   0.70032   0.73071   1.000
    C198    C    0.90346   0.69628   0.69283   1.000
    C199    C    0.15434   0.71675   0.80119   1.000
    C200    C    0.28591   0.65660   0.86852   1.000
    C201    C    0.31341   0.44029   0.99369   1.000
    C202    C    0.30998   0.51505   0.95382   1.000
    C203    C    0.21091   0.53792   0.93100   1.000
    C204    C    0.12097   0.48284   0.94930   1.000
    C205    C    0.13342   0.40893   0.98874   1.000
    C206    C    0.25000   0.75003   0.33446   1.000
    C207    C    0.25000   0.75003   0.83449   1.000
    C208    C    0.55017   0.70695   0.90827   1.000
    C209    C    0.94984   0.79311   0.90826   1.000
    C210    C    0.29307   0.05019   0.40825   1.000
    C211    C    0.20693   0.44982   0.40825   1.000
    C212    C    0.44983   0.29309   0.09175   1.000
    C213    C    0.05017   0.20693   0.09174   1.000
    C214    C    0.70694   0.94984   0.59170   1.000
    C215    C    0.79308   0.55020   0.59175   1.000
    C216    C    0.77138   0.61026   0.84364   1.000
    C217    C    0.38755   0.27234   0.48854   1.000
    C218    C    0.72864   0.88979   0.84364   1.000
    C219    C    0.11246   0.22767   0.48854   1.000
    C220    C    0.38981   0.27137   0.34360   1.000
    C221    C    0.72764   0.88754   0.98852   1.000
    C222    C    0.11020   0.22864   0.34360   1.000
    C223    C    0.77238   0.61251   0.98852   1.000
    C224    C    0.22863   0.38977   0.15637   1.000
    C225    C    0.61246   0.72768   0.51147   1.000
    C226    C    0.27137   0.11025   0.15630   1.000
    C227    C    0.88755   0.77236   0.51147   1.000
    C228    C    0.61021   0.72866   0.65641   1.000
    C229    C    0.27237   0.11249   0.01149   1.000
    C230    C    0.88982   0.77139   0.65640   1.000
    C231    C    0.22763   0.38753   0.01149   1.000
    C232    C    0.80089   0.36581   0.73575   1.000
    C233    C    0.61040   0.30623   0.60680   1.000
    C234    C    0.69913   0.13421   0.73575   1.000
    C235    C    0.88963   0.19378   0.60681   1.000
    C236    C    0.63423   0.30090   0.23572   1.000
    C237    C    0.69379   0.11036   0.10679   1.000
    C238    C    0.86579   0.19912   0.23572   1.000
    C239    C    0.80624   0.38966   0.10679   1.000
    C240    C    0.19912   0.63423   0.26426   1.000
    C241    C    0.38962   0.69380   0.39320   1.000
    C242    C    0.30088   0.86583   0.26426   1.000
    C243    C    0.11038   0.80625   0.39320   1.000
    C244    C    0.36578   0.69914   0.76429   1.000
    C245    C    0.30623   0.88967   0.89322   1.000
    C246    C    0.13422   0.80091   0.76429   1.000
    C247    C    0.19377   0.61038   0.89322   1.000
    O248    O    0.09936   0.38615   0.99574   1.000
    O249    O    0.40064   0.11386   0.99573   1.000
    O250    O    0.68832   0.52237   0.02626   1.000
    O251    O    0.64908   0.56985   0.99678   1.000
    O252    O    0.72949   0.58613   0.99742   1.000
    O253    O    0.81170   0.97767   0.02626   1.000
    O254    O    0.85093   0.93021   0.99678   1.000
    O255    O    0.77053   0.91392   0.99742   1.000
    O256    O    0.87282   0.55414   0.03091   1.000
    O257    O    0.81949   0.60181   0.99986   1.000
    O258    O    0.90065   0.61388   0.00423   1.000
    O259    O    0.62720   0.94590   0.03095   1.000
    O260    O    0.68053   0.89824   0.99990   1.000
    O261    O    0.59937   0.88616   0.00427   1.000
    O262    O    0.26119   0.18125   0.04763   1.000
    O263    O    0.31948   0.10179   0.00010   1.000
    O264    O    0.22948   0.08611   0.00255   1.000
    O265    O    0.23881   0.31877   0.04763   1.000
    O266    O    0.18052   0.39823   0.00011   1.000
    O267    O    0.27052   0.41391   0.00259   1.000
    O268    O    0.14908   0.06983   0.00319   1.000
    O269    O    0.35092   0.43019   0.00324   1.000
    O270    O    0.84659   0.03473   0.05228   1.000
    O271    O    0.76045   0.02647   0.05740   1.000
    O272    O    0.65342   0.46530   0.05228   1.000
    O273    O    0.73957   0.47355   0.05740   1.000
    O274    O    0.91794   0.50973   0.05916   1.000
    O275    O    0.83407   0.48965   0.05962   1.000
    O276    O    0.58207   0.99031   0.05918   1.000
    O277    O    0.66595   0.01038   0.05962   1.000
    O278    O    0.79767   0.42589   0.08770   1.000
    O279    O    0.70235   0.07413   0.08770   1.000
    O280    O    0.47035   0.24859   0.08097   1.000
    O281    O    0.02965   0.25143   0.08096   1.000
    O282    O    0.15008   0.22847   0.08775   1.000
    O283    O    0.34992   0.27155   0.08776   1.000
    O284    O    0.26069   0.18013   0.12003   1.000
    O285    O    0.23932   0.31989   0.12007   1.000
    O286    O    0.68538   0.32877   0.11713   1.000
    O287    O    0.81464   0.17125   0.11713   1.000
    O288    O    0.76017   0.36655   0.11914   1.000
    O289    O    0.73985   0.13347   0.11914   1.000
    O290    O    0.11406   0.44902   0.14281   1.000
    O291    O    0.38595   0.05100   0.14281   1.000
    O292    O    0.69425   0.37415   0.14319   1.000
    O293    O    0.73205   0.29672   0.14851   1.000
    O294    O    0.80577   0.12587   0.14322   1.000
    O295    O    0.76796   0.20330   0.14851   1.000
    O296    O    0.31341   0.07694   0.15686   1.000
    O297    O    0.23380   0.10341   0.17453   1.000
    O298    O    0.18659   0.42308   0.15690   1.000
    O299    O    0.26620   0.39660   0.17454   1.000
    O300    O    0.13887   0.49725   0.17524   1.000
    O301    O    0.36114   0.00279   0.17524   1.000
    O302    O    0.79784   0.26665   0.18217   1.000
    O303    O    0.70218   0.23337   0.18217   1.000
    O304    O    0.61910   0.21129   0.18645   1.000
    O305    O    0.88092   0.28873   0.18645   1.000
    O306    O    0.16267   0.12411   0.19188   1.000
    O307    O    0.33733   0.37589   0.19185   1.000
    O308    O    0.09892   0.56469   0.19253   1.000
    O309    O    0.40109   0.93537   0.19257   1.000
    O310    O    0.30176   0.44292   0.21168   1.000
    O311    O    0.19824   0.05709   0.21168   1.000
    O312    O    0.17304   0.54528   0.21183   1.000
    O313    O    0.32696   0.95477   0.21183   1.000
    O314    O    0.83669   0.32033   0.20931   1.000
    O315    O    0.85574   0.24120   0.21727   1.000
    O316    O    0.66333   0.17968   0.20931   1.000
    O317    O    0.64429   0.25882   0.21727   1.000
    O318    O    0.25632   0.51742   0.23063   1.000
    O319    O    0.20601   0.59333   0.24743   1.000
    O320    O    0.24368   0.98261   0.23060   1.000
    O321    O    0.29399   0.90672   0.24743   1.000
    O322    O    0.16857   0.01511   0.24489   1.000
    O323    O    0.33143   0.48489   0.24492   1.000
    O324    O    0.90668   0.20601   0.25255   1.000
    O325    O    0.59334   0.29401   0.25255   1.000
    O326    O    0.01513   0.33138   0.25487   1.000
    O327    O    0.48488   0.16864   0.25501   1.000
    O328    O    0.25880   0.85577   0.28271   1.000
    O329    O    0.24120   0.64428   0.28271   1.000
    O330    O    0.98259   0.25630   0.26919   1.000
    O331    O    0.05709   0.30173   0.28809   1.000
    O332    O    0.51743   0.24372   0.26933   1.000
    O333    O    0.44292   0.19829   0.28824   1.000
    O334    O    0.95471   0.17305   0.28815   1.000
    O335    O    0.54531   0.32696   0.28815   1.000
    O336    O    0.32032   0.66332   0.29066   1.000
    O337    O    0.17968   0.83673   0.29066   1.000
    O338    O    0.21127   0.88096   0.31352   1.000
    O339    O    0.23336   0.79787   0.31781   1.000
    O340    O    0.28873   0.61909   0.31352   1.000
    O341    O    0.26664   0.70218   0.31781   1.000
    O342    O    0.93528   0.09895   0.30745   1.000
    O343    O    0.00272   0.13890   0.32476   1.000
    O344    O    0.56474   0.40106   0.30745   1.000
    O345    O    0.49730   0.36111   0.32476   1.000
    O346    O    0.12411   0.33730   0.30805   1.000
    O347    O    0.10338   0.26619   0.32539   1.000
    O348    O    0.37590   0.16272   0.30805   1.000
    O349    O    0.39663   0.23382   0.32539   1.000
    O350    O    0.29670   0.76798   0.35147   1.000
    O351    O    0.20330   0.73207   0.35147   1.000
    O352    O    0.07689   0.18662   0.34308   1.000
    O353    O    0.05091   0.11411   0.35720   1.000
    O354    O    0.42313   0.31339   0.34309   1.000
    O355    O    0.44910   0.38590   0.35721   1.000
    O356    O    0.18010   0.23932   0.37992   1.000
    O357    O    0.31991   0.26069   0.37992   1.000
    O358    O    0.12589   0.69427   0.35674   1.000
    O359    O    0.37411   0.80578   0.35674   1.000
    O360    O    0.36651   0.73987   0.38084   1.000
    O361    O    0.32873   0.81468   0.38284   1.000
    O362    O    0.13349   0.76018   0.38084   1.000
    O363    O    0.17127   0.68537   0.38284   1.000
    O364    O    0.42584   0.70237   0.41229   1.000
    O365    O    0.07416   0.79768   0.41229   1.000
    O366    O    0.22847   0.34991   0.41224   1.000
    O367    O    0.25145   0.47032   0.41902   1.000
    O368    O    0.27154   0.15010   0.41224   1.000
    O369    O    0.24856   0.02969   0.41902   1.000
    O370    O    0.31877   0.26117   0.45239   1.000
    O371    O    0.18123   0.23884   0.45239   1.000
    O372    O    0.01040   0.83408   0.44037   1.000
    O373    O    0.02650   0.73956   0.44258   1.000
    O374    O    0.48960   0.66597   0.44037   1.000
    O375    O    0.47350   0.76049   0.44254   1.000
    O376    O    0.99032   0.91796   0.44082   1.000
    O377    O    0.50969   0.58209   0.44082   1.000
    O378    O    0.46523   0.84665   0.44766   1.000
    O379    O    0.03477   0.65340   0.44770   1.000
    O380    O    0.55410   0.62722   0.46905   1.000
    O381    O    0.94591   0.87283   0.46905   1.000
    O382    O    0.52231   0.81175   0.47368   1.000
    O383    O    0.97769   0.68829   0.47371   1.000
    O384    O    0.43023   0.14903   0.49682   1.000
    O385    O    0.06978   0.35098   0.49682   1.000
    O386    O    0.41393   0.22945   0.49745   1.000
    O387    O    0.39825   0.31946   0.49992   1.000
    O388    O    0.08607   0.27056   0.49745   1.000
    O389    O    0.10176   0.18055   0.49992   1.000
    O390    O    0.61384   0.59939   0.49573   1.000
    O391    O    0.60176   0.68056   0.50009   1.000
    O392    O    0.88617   0.90066   0.49573   1.000
    O393    O    0.89825   0.81948   0.50009   1.000
    O394    O    0.91394   0.72947   0.50256   1.000
    O395    O    0.93022   0.64904   0.50319   1.000
    O396    O    0.58607   0.77058   0.50256   1.000
    O397    O    0.56979   0.85100   0.50320   1.000
    O398    O    0.11384   0.09937   0.50428   1.000
    O399    O    0.38617   0.40064   0.50428   1.000
    O400    O    0.47770   0.18827   0.52629   1.000
    O401    O    0.02231   0.31174   0.52629   1.000
    O402    O    0.05410   0.12720   0.53097   1.000
    O403    O    0.44590   0.37281   0.53097   1.000
    O404    O    0.68123   0.73885   0.54762   1.000
    O405    O    0.81878   0.76119   0.54762   1.000
    O406    O    0.53478   0.15338   0.55231   1.000
    O407    O    0.52652   0.23954   0.55743   1.000
    O408    O    0.96524   0.34663   0.55231   1.000
    O409    O    0.97351   0.26047   0.55743   1.000
    O410    O    0.00969   0.08207   0.55919   1.000
    O411    O    0.98961   0.16595   0.55964   1.000
    O412    O    0.49031   0.41794   0.55919   1.000
    O413    O    0.51040   0.33406   0.55964   1.000
    O414    O    0.92585   0.20236   0.58773   1.000
    O415    O    0.57417   0.29766   0.58772   1.000
    O416    O    0.75145   0.97034   0.58096   1.000
    O417    O    0.74856   0.52971   0.58099   1.000
    O418    O    0.72847   0.84993   0.58774   1.000
    O419    O    0.77154   0.65011   0.58776   1.000
    O420    O    0.81991   0.76070   0.62008   1.000
    O421    O    0.68011   0.73934   0.62009   1.000
    O422    O    0.82874   0.31466   0.61718   1.000
    O423    O    0.67129   0.18536   0.61718   1.000
    O424    O    0.63351   0.26016   0.61917   1.000
    O425    O    0.86652   0.23985   0.61917   1.000
    O426    O    0.94910   0.88591   0.64281   1.000
    O427    O    0.55092   0.61413   0.64279   1.000
    O428    O    0.62590   0.19425   0.64327   1.000
    O429    O    0.70332   0.23205   0.64855   1.000
    O430    O    0.87412   0.30576   0.64327   1.000
    O431    O    0.79671   0.26796   0.64855   1.000
    O432    O    0.92313   0.81341   0.65692   1.000
    O433    O    0.89664   0.73383   0.67462   1.000
    O434    O    0.57689   0.68663   0.65691   1.000
    O435    O    0.60339   0.76621   0.67462   1.000
    O436    O    0.50271   0.63892   0.67524   1.000
    O437    O    0.99730   0.86113   0.67525   1.000
    O438    O    0.76665   0.20216   0.68221   1.000
    O439    O    0.73337   0.29785   0.68221   1.000
    O440    O    0.71128   0.38095   0.68649   1.000
    O441    O    0.78874   0.11906   0.68649   1.000
    O442    O    0.87591   0.66273   0.69196   1.000
    O443    O    0.62412   0.83731   0.69196   1.000
    O444    O    0.06473   0.90108   0.69256   1.000
    O445    O    0.43527   0.59897   0.69256   1.000
    O446    O    0.55709   0.80174   0.71177   1.000
    O447    O    0.94293   0.69830   0.71177   1.000
    O448    O    0.04530   0.82698   0.71186   1.000
    O449    O    0.45470   0.67307   0.71186   1.000
    O450    O    0.82034   0.16330   0.70935   1.000
    O451    O    0.74121   0.14426   0.71731   1.000
    O452    O    0.67969   0.33671   0.70935   1.000
    O453    O    0.75881   0.35575   0.71731   1.000
    O454    O    0.48259   0.75632   0.73067   1.000
    O455    O    0.40667   0.70602   0.74747   1.000
    O456    O    0.01742   0.74373   0.73067   1.000
    O457    O    0.09333   0.79403   0.74747   1.000
    O458    O    0.51514   0.83139   0.74499   1.000
    O459    O    0.98489   0.66866   0.74499   1.000
    O460    O    0.70602   0.09332   0.75258   1.000
    O461    O    0.79400   0.40670   0.75258   1.000
    O462    O    0.83143   0.98491   0.75509   1.000
    O463    O    0.66858   0.51513   0.75510   1.000
    O464    O    0.14428   0.75883   0.78274   1.000
    O465    O    0.35572   0.74122   0.78274   1.000
    O466    O    0.75633   0.01742   0.76939   1.000
    O467    O    0.80176   0.94294   0.78830   1.000
    O468    O    0.74369   0.48261   0.76939   1.000
    O469    O    0.69825   0.55711   0.78831   1.000
    O470    O    0.67305   0.04526   0.78818   1.000
    O471    O    0.82698   0.45475   0.78818   1.000
    O472    O    0.33668   0.82035   0.79070   1.000
    O473    O    0.16332   0.67970   0.79070   1.000
    O474    O    0.38091   0.78874   0.81357   1.000
    O475    O    0.29783   0.76666   0.81784   1.000
    O476    O    0.11909   0.71131   0.81357   1.000
    O477    O    0.20217   0.73339   0.81784   1.000
    O478    O    0.59893   0.06468   0.80743   1.000
    O479    O    0.63888   0.99725   0.82477   1.000
    O480    O    0.90110   0.43535   0.80745   1.000
    O481    O    0.86115   0.50279   0.82473   1.000
    O482    O    0.83734   0.87591   0.80812   1.000
    O483    O    0.76621   0.89662   0.82544   1.000
    O484    O    0.66267   0.62413   0.80813   1.000
    O485    O    0.73381   0.60342   0.82545   1.000
    O486    O    0.26795   0.70331   0.85151   1.000
    O487    O    0.23204   0.79674   0.85151   1.000
    O488    O    0.81342   0.57696   0.84307   1.000
    O489    O    0.88595   0.55102   0.85716   1.000
    O490    O    0.68660   0.92310   0.84312   1.000
    O491    O    0.61407   0.94904   0.85720   1.000
    O492    O    0.76069   0.68014   0.87995   1.000
    O493    O    0.73932   0.81991   0.87995   1.000
    O494    O    0.30576   0.62588   0.85678   1.000
    O495    O    0.19424   0.87417   0.85678   1.000
    O496    O    0.23984   0.63349   0.88087   1.000
    O497    O    0.31463   0.67127   0.88288   1.000
    O498    O    0.26016   0.86656   0.88087   1.000
    O499    O    0.18537   0.82878   0.88286   1.000
    O500    O    0.20234   0.57415   0.91211   1.000
    O501    O    0.29766   0.92590   0.91211   1.000
    O502    O    0.84992   0.77157   0.91226   1.000
    O503    O    0.97036   0.74861   0.91905   1.000
    O504    O    0.65009   0.72848   0.91226   1.000
    O505    O    0.52966   0.75145   0.91905   1.000
    O506    O    0.76119   0.68127   0.95239   1.000
    O507    O    0.73882   0.81878   0.95239   1.000
    O508    O    0.33406   0.98965   0.94020   1.000
    O509    O    0.23956   0.97357   0.94241   1.000
    O510    O    0.16594   0.51038   0.94015   1.000
    O511    O    0.26044   0.52648   0.94241   1.000
    O512    O    0.41794   0.00971   0.94080   1.000
    O513    O    0.08207   0.49029   0.94079   1.000
    O514    O    0.15341   0.96532   0.94774   1.000
    O515    O    0.34658   0.53474   0.94774   1.000
    O516    O    0.12720   0.44588   0.96902   1.000
    O517    O    0.37281   0.05412   0.96905   1.000
    O518    O    0.18831   0.02237   0.97371   1.000
    O519    O    0.31169   0.47767   0.97376   1.000
loop_
    _geom_bond_atom_site_label_1
    _geom_bond_atom_site_label_2
    _geom_bond_distance
    _geom_bond_site_symmetry_2
    _ccdc_geom_bond_type
    C106   O248      0.54555  1_554   S
    C205   O248      0.54555      .   S
    C93    O249      0.54573  1_554   S
    C193   O249      0.54573      .   S
    C151   O250      0.69716      .   S
    C152   O250      0.69716      .   S
    C151   O251      0.54673  1_554   S
    C51    O251      0.54673      .   S
    C151   O252      0.67306  1_554   S
    C223   O252      0.67306      .   S
    C139   O253      0.69700      .   S
    C140   O253      0.69700  1_545   S
    C139   O254      0.54681  1_554   S
    C38    O254      0.54681      .   S
    C139   O255      0.67307  1_554   S
    C221   O255      0.67307      .   S
    C155   O256      0.69337      .   S
    C154   O256      0.69337      .   S
    C155   O257      0.67385  1_554   S
    C223   O257      0.67385      .   S
    C155   O258      0.54527      .   S
    C54    O258      0.54527  1_556   S
    C143   O259      0.69271      .   S
    C142   O259      0.69271      .   S
    C143   O260      0.67426  1_554   S
    C221   O260      0.67426      .   S
    C143   O261      0.54553      .   S
    C41    O261      0.54553  1_556   S
    C229   O262      1.27933      .   S
    C2     O262      1.27933      .   S
    C229   O263      0.67450      .   S
    C193   O263      0.67450  1_556   S
    C229   O264      0.67345      .   S
    C189   O264      0.67345  1_556   S
    C231   O265      1.27934      .   S
    C2     O265      1.27934      .   S
    C231   O266      0.67422      .   S
    C205   O266      0.67422  1_556   S
    C231   O267      0.67308      .   S
    C201   O267      0.67308  1_556   S
    C90    O268      0.54730      .   S
    C189   O268      0.54730  1_556   S
    C103   O269      0.54677      .   S
    C201   O269      0.54677  1_556   S
    C140   O270      0.54539      .   S
    C39    O270      0.54539      .   S
    C140   O271      0.70119      .   S
    C141   O271      0.70119      .   S
    C152   O272      0.54538      .   S
    C52    O272      0.54538      .   S
    C152   O273      0.70121      .   S
    C153   O273      0.70121      .   S
    C154   O274      0.54428      .   S
    C53    O274      0.54428      .   S
    C154   O275      0.70203      .   S
    C153   O275      0.70203      .   S
    C142   O276      0.54442      .   S
    C40    O276      0.54442      .   S
    C142   O277      0.70197  1_565   S
    C141   O277      0.70197      .   S
    C153   O278      0.67951      .   S
    C239   O278      0.67951      .   S
    C141   O279      0.67952      .   S
    C237   O279      0.67952      .   S
    C68    O280      0.67559      .   S
    C212   O280      0.67559      .   S
    C81    O281      0.67558      .   S
    C213   O281      0.67558      .   S
    C2     O282      1.28825      .   S
    C213   O282      1.28825      .   S
    C2     O283      1.28825      .   S
    C212   O283      1.28825      .   S
    C2     O284      1.29075      .   S
    C226   O284      1.29075      .   S
    C2     O285      1.29140      .   S
    C224   O285      1.29140      .   S
    C50    O286      0.54927      .   S
    C150   O286      0.54927      .   S
    C37    O287      0.54927      .   S
    C138   O287      0.54927      .   S
    C239   O288      0.72183      .   S
    C150   O288      0.72183      .   S
    C237   O289      0.72183      .   S
    C138   O289      0.72183      .   S
    C56    O290      0.54573      .   S
    C158   O290      0.54573      .   S
    C69    O291      0.54566      .   S
    C170   O291      0.54566      .   S
    C150   O292      0.54993      .   S
    C49    O292      0.54993      .   S
    C150   O293      0.76696      .   S
    C157   O293      0.76696      .   S
    C138   O294      0.55036      .   S
    C36    O294      0.55036      .   S
    C138   O295      0.76696      .   S
    C157   O295      0.76696      .   S
    C226   O296      0.67385      .   S
    C170   O296      0.67385      .   S
    C226   O297      0.67223      .   S
    C174   O297      0.67223      .   S
    C224   O298      0.67383      .   S
    C158   O298      0.67383      .   S
    C224   O299      0.67104      .   S
    C162   O299      0.67104      .   S
    C158   O300      0.69316      .   S
    C159   O300      0.69316      .   S
    C170   O301      0.69298      .   S
    C171   O301      0.69298  1_565   S
    C157   O302      0.76796      .   S
    C149   O302      0.76796      .   S
    C157   O303      0.76796      .   S
    C137   O303      0.76796      .   S
    C35    O304      0.55037      .   S
    C137   O304      0.55037      .   S
    C48    O305      0.55036      .   S
    C149   O305      0.55036      .   S
    C72    O306      0.54582      .   S
    C174   O306      0.54582      .   S
    C59    O307      0.54579      .   S
    C162   O307      0.54579      .   S
    C57    O308      0.54480      .   S
    C159   O308      0.54480      .   S
    C70    O309      0.54478      .   S
    C171   O309      0.54478      .   S
    C162   O310      0.69766      .   S
    C161   O310      0.69766      .   S
    C174   O311      0.69665      .   S
    C173   O311      0.69665      .   S
    C159   O312      0.70278      .   S
    C160   O312      0.70278      .   S
    C171   O313      0.70279      .   S
    C172   O313      0.70279      .   S
    C149   O314      0.55013      .   S
    C47    O314      0.55013      .   S
    C149   O315      0.72280      .   S
    C238   O315      0.72280      .   S
    C137   O316      0.55014      .   S
    C34    O316      0.55014      .   S
    C137   O317      0.72280      .   S
    C236   O317      0.72280      .   S
    C160   O318      0.70074      .   S
    C161   O318      0.70074      .   S
    C160   O319      0.67842      .   S
    C240   O319      0.67842      .   S
    C172   O320      0.70055      .   S
    C173   O320      0.70055  1_545   S
    C172   O321      0.67842      .   S
    C242   O321      0.67842      .   S
    C173   O322      0.54377      .   S
    C71    O322      0.54377      .   S
    C161   O323      0.54341      .   S
    C58    O323      0.54341      .   S
    C238   O324      0.67837      .   S
    C146   O324      0.67837      .   S
    C236   O325      0.67836      .   S
    C134   O325      0.67836      .   S
    C45    O326      0.54083      .   S
    C147   O326      0.54083      .   S
    C32    O327      0.54344      .   S
    C135   O327      0.54344      .   S
    C242   O328      0.72277      .   S
    C175   O328      0.72277      .   S
    C240   O329      0.72276      .   S
    C163   O329      0.72276      .   S
    C147   O330      0.70068  1_455   S
    C146   O330      0.70068      .   S
    C147   O331      0.69977      .   S
    C148   O331      0.69977      .   S
    C135   O332      0.70073      .   S
    C134   O332      0.70073      .   S
    C135   O333      0.69704      .   S
    C136   O333      0.69704      .   S
    C146   O334      0.70279      .   S
    C145   O334      0.70279      .   S
    C134   O335      0.70278      .   S
    C133   O335      0.70278      .   S
    C60    O336      0.55015      .   S
    C163   O336      0.55015      .   S
    C73    O337      0.55016      .   S
    C175   O337      0.55016      .   S
    C175   O338      0.55038      .   S
    C74    O338      0.55038      .   S
    C175   O339      0.76802      .   S
    C206   O339      0.76802      .   S
    C163   O340      0.55039      .   S
    C61    O340      0.55039      .   S
    C163   O341      0.76803      .   S
    C206   O341      0.76803      .   S
    C145   O342      0.54479      .   S
    C44    O342      0.54479      .   S
    C145   O343      0.69302  1_655   S
    C144   O343      0.69302      .   S
    C133   O344      0.54478      .   S
    C31    O344      0.54478      .   S
    C133   O345      0.69318      .   S
    C132   O345      0.69318      .   S
    C148   O346      0.54582      .   S
    C46    O346      0.54582      .   S
    C148   O347      0.67161      .   S
    C222   O347      0.67161      .   S
    C136   O348      0.54582      .   S
    C33    O348      0.54582      .   S
    C136   O349      0.67160      .   S
    C220   O349      0.67160      .   S
    C206   O350      0.76689      .   S
    C164   O350      0.76689      .   S
    C206   O351      0.76691      .   S
    C176   O351      0.76691      .   S
    C144   O352      0.67384      .   S
    C222   O352      0.67384      .   S
    C144   O353      0.54578      .   S
    C43    O353      0.54578      .   S
    C132   O354      0.67383      .   S
    C220   O354      0.67383      .   S
    C132   O355      0.54567      .   S
    C30    O355      0.54567      .   S
    C222   O356      1.29197      .   S
    C1     O356      1.29197      .   S
    C220   O357      1.29199      .   S
    C1     O357      1.29199      .   S
    C75    O358      0.55042      .   S
    C176   O358      0.55042      .   S
    C62    O359      0.55040      .   S
    C164   O359      0.55040      .   S
    C164   O360      0.72184      .   S
    C241   O360      0.72184      .   S
    C164   O361      0.54930      .   S
    C63    O361      0.54930      .   S
    C176   O362      0.72183      .   S
    C243   O362      0.72183      .   S
    C176   O363      0.54929      .   S
    C76    O363      0.54929      .   S
    C241   O364      0.67946      .   S
    C167   O364      0.67946      .   S
    C243   O365      0.67948      .   S
    C179   O365      0.67948      .   S
    C211   O366      1.28790      .   S
    C1     O366      1.28790      .   S
    C211   O367      0.67559      .   S
    C55    O367      0.67559      .   S
    C210   O368      1.28790      .   S
    C1     O368      1.28790      .   S
    C210   O369      0.67560      .   S
    C42    O369      0.67560      .   S
    C1     O370      1.27982      .   S
    C217   O370      1.27982      .   S
    C1     O371      1.27982      .   S
    C219   O371      1.27982      .   S
    C179   O372      0.70200      .   S
    C180   O372      0.70200  1_655   S
    C179   O373      0.70121      .   S
    C178   O373      0.70121      .   S
    C167   O374      0.70205      .   S
    C168   O374      0.70205      .   S
    C167   O375      0.70078      .   S
    C166   O375      0.70078      .   S
    C79    O376      0.54444      .   S
    C180   O376      0.54444      .   S
    C66    O377      0.54443      .   S
    C168   O377      0.54443      .   S
    C65    O378      0.54509      .   S
    C166   O378      0.54509      .   S
    C78    O379      0.54538      .   S
    C178   O379      0.54538      .   S
    C168   O380      0.69276      .   S
    C169   O380      0.69276      .   S
    C180   O381      0.69276      .   S
    C181   O381      0.69276      .   S
    C166   O382      0.69797      .   S
    C165   O382      0.69797      .   S
    C178   O383      0.69704  1_455   S
    C177   O383      0.69704      .   S
    C12    O384      0.54686      .   S
    C115   O384      0.54686      .   S
    C25    O385      0.54686      .   S
    C127   O385      0.54686      .   S
    C217   O386      0.67314      .   S
    C115   O386      0.67314      .   S
    C217   O387      0.67432      .   S
    C119   O387      0.67432      .   S
    C219   O388      0.67314      .   S
    C127   O388      0.67314      .   S
    C219   O389      0.67432      .   S
    C131   O389      0.67432      .   S
    C169   O390      0.54561      .   S
    C67    O390      0.54561      .   S
    C169   O391      0.67431      .   S
    C225   O391      0.67431      .   S
    C181   O392      0.54560      .   S
    C80    O392      0.54560      .   S
    C181   O393      0.67431      .   S
    C227   O393      0.67431      .   S
    C177   O394      0.67317      .   S
    C227   O394      0.67317      .   S
    C177   O395      0.54692      .   S
    C77    O395      0.54692      .   S
    C165   O396      0.67313      .   S
    C225   O396      0.67313      .   S
    C165   O397      0.54686      .   S
    C64    O397      0.54686      .   S
    C28    O398      0.54560      .   S
    C131   O398      0.54560      .   S
    C15    O399      0.54560      .   S
    C119   O399      0.54560      .   S
    C115   O400      0.69713      .   S
    C116   O400      0.69713      .   S
    C127   O401      0.69706      .   S
    C128   O401      0.69706  1_655   S
    C131   O402      0.69278      .   S
    C130   O402      0.69278      .   S
    C119   O403      0.69278      .   S
    C118   O403      0.69278      .   S
    C225   O404      1.27984      .   S
    C3     O404      1.27984      .   S
    C227   O405      1.27982      .   S
    C3     O405      1.27982      .   S
    C116   O406      0.54542      .   S
    C13    O406      0.54542      .   S
    C116   O407      0.70125      .   S
    C117   O407      0.70125      .   S
    C128   O408      0.54541      .   S
    C26    O408      0.54541      .   S
    C128   O409      0.70124      .   S
    C129   O409      0.70124      .   S
    C130   O410      0.54442      .   S
    C27    O410      0.54442      .   S
    C130   O411      0.70199  1_455   S
    C129   O411      0.70199      .   S
    C118   O412      0.54442      .   S
    C14    O412      0.54442      .   S
    C118   O413      0.70205      .   S
    C117   O413      0.70205      .   S
    C129   O414      0.67947      .   S
    C235   O414      0.67947      .   S
    C117   O415      0.67939      .   S
    C233   O415      0.67939      .   S
    C94    O416      0.67528      .   S
    C214   O416      0.67528      .   S
    C107   O417      0.67555      .   S
    C215   O417      0.67555      .   S
    C3     O418      1.28784      .   S
    C214   O418      1.28784      .   S
    C3     O419      1.28789      .   S
    C215   O419      1.28789      .   S
    C3     O420      1.29191      .   S
    C230   O420      1.29191      .   S
    C3     O421      1.29196      .   S
    C228   O421      1.29196      .   S
    C24    O422      0.54928      .   S
    C126   O422      0.54928      .   S
    C11    O423      0.54927      .   S
    C114   O423      0.54927      .   S
    C233   O424      0.72189      .   S
    C114   O424      0.72189      .   S
    C235   O425      0.72183      .   S
    C126   O425      0.72183      .   S
    C95    O426      0.54568      .   S
    C194   O426      0.54568      .   S
    C82    O427      0.54542      .   S
    C182   O427      0.54542      .   S
    C114   O428      0.55036      .   S
    C10    O428      0.55036      .   S
    C114   O429      0.76695      .   S
    C156   O429      0.76695      .   S
    C126   O430      0.55035      .   S
    C23    O430      0.55035      .   S
    C126   O431      0.76695      .   S
    C156   O431      0.76695      .   S
    C230   O432      0.67384      .   S
    C194   O432      0.67384      .   S
    C230   O433      0.67169      .   S
    C198   O433      0.67169      .   S
    C228   O434      0.67383      .   S
    C182   O434      0.67383      .   S
    C228   O435      0.67161      .   S
    C186   O435      0.67161      .   S
    C182   O436      0.69344      .   S
    C183   O436      0.69344      .   S
    C194   O437      0.69310      .   S
    C195   O437      0.69310  1_455   S
    C156   O438      0.76798      .   S
    C125   O438      0.76798      .   S
    C156   O439      0.76798      .   S
    C113   O439      0.76798      .   S
    C9     O440      0.55036      .   S
    C113   O440      0.55036      .   S
    C22    O441      0.55036      .   S
    C125   O441      0.55036      .   S
    C98    O442      0.54583      .   S
    C198   O442      0.54583      .   S
    C85    O443      0.54582      .   S
    C186   O443      0.54582      .   S
    C96    O444      0.54478      .   S
    C195   O444      0.54478      .   S
    C83    O445      0.54478      .   S
    C183   O445      0.54478      .   S
    C186   O446      0.69704      .   S
    C185   O446      0.69704      .   S
    C198   O447      0.69704      .   S
    C197   O447      0.69704      .   S
    C195   O448      0.70278      .   S
    C196   O448      0.70278      .   S
    C183   O449      0.70279      .   S
    C184   O449      0.70279      .   S
    C125   O450      0.55017      .   S
    C21    O450      0.55017      .   S
    C125   O451      0.72277      .   S
    C234   O451      0.72277      .   S
    C113   O452      0.55016      .   S
    C8     O452      0.55016      .   S
    C113   O453      0.72279      .   S
    C232   O453      0.72279      .   S
    C184   O454      0.70073      .   S
    C185   O454      0.70073      .   S
    C184   O455      0.67837      .   S
    C244   O455      0.67837      .   S
    C196   O456      0.70067      .   S
    C197   O456      0.70067  1_655   S
    C196   O457      0.67836      .   S
    C246   O457      0.67836      .   S
    C185   O458      0.54345      .   S
    C84    O458      0.54345      .   S
    C197   O459      0.54344      .   S
    C97    O459      0.54344      .   S
    C234   O460      0.67841      .   S
    C122   O460      0.67841      .   S
    C232   O461      0.67841      .   S
    C110   O461      0.67841      .   S
    C19    O462      0.54340      .   S
    C123   O462      0.54340      .   S
    C6     O463      0.54334      .   S
    C111   O463      0.54334      .   S
    C246   O464      0.72279      .   S
    C199   O464      0.72279      .   S
    C244   O465      0.72280      .   S
    C187   O465      0.72280      .   S
    C123   O466      0.70056  1_565   S
    C122   O466      0.70056      .   S
    C123   O467      0.69702      .   S
    C124   O467      0.69702      .   S
    C111   O468      0.70074      .   S
    C110   O468      0.70074      .   S
    C111   O469      0.69711      .   S
    C112   O469      0.69711      .   S
    C122   O470      0.70276      .   S
    C121   O470      0.70276      .   S
    C110   O471      0.70279      .   S
    C109   O471      0.70279      .   S
    C86    O472      0.55013      .   S
    C187   O472      0.55013      .   S
    C99    O473      0.55013      .   S
    C199   O473      0.55013      .   S
    C187   O474      0.55037      .   S
    C87    O474      0.55037      .   S
    C187   O475      0.76795      .   S
    C207   O475      0.76795      .   S
    C199   O476      0.55038      .   S
    C100   O476      0.55038      .   S
    C199   O477      0.76794      .   S
    C207   O477      0.76794      .   S
    C121   O478      0.54477      .   S
    C18    O478      0.54477      .   S
    C121   O479      0.69298  1_545   S
    C120   O479      0.69298      .   S
    C109   O480      0.54478      .   S
    C5     O480      0.54478      .   S
    C109   O481      0.69239      .   S
    C108   O481      0.69239      .   S
    C124   O482      0.54583      .   S
    C20    O482      0.54583      .   S
    C124   O483      0.67166      .   S
    C218   O483      0.67166      .   S
    C112   O484      0.54582      .   S
    C7     O484      0.54582      .   S
    C112   O485      0.67160      .   S
    C216   O485      0.67160      .   S
    C207   O486      0.76697      .   S
    C200   O486      0.76697      .   S
    C207   O487      0.76697      .   S
    C188   O487      0.76697      .   S
    C108   O488      0.67386      .   S
    C216   O488      0.67386      .   S
    C108   O489      0.54647      .   S
    C4     O489      0.54647      .   S
    C120   O490      0.67384      .   S
    C218   O490      0.67384      .   S
    C120   O491      0.54572      .   S
    C17    O491      0.54572      .   S
    C216   O492      1.29140      .   S
    C0     O492      1.29140      .   S
    C218   O493      1.29142      .   S
    C0     O493      1.29142      .   S
    C101   O494      0.55043      .   S
    C200   O494      0.55043      .   S
    C88    O495      0.55042      .   S
    C188   O495      0.55042      .   S
    C200   O496      0.72183      .   S
    C247   O496      0.72183      .   S
    C200   O497      0.54928      .   S
    C102   O497      0.54928      .   S
    C188   O498      0.72182      .   S
    C245   O498      0.72182      .   S
    C188   O499      0.54894      .   S
    C89    O499      0.54894      .   S
    C247   O500      0.67578      .   S
    C203   O500      0.67578      .   S
    C245   O501      0.67578      .   S
    C191   O501      0.67578      .   S
    C209   O502      1.28825      .   S
    C0     O502      1.28825      .   S
    C209   O503      0.67559      .   S
    C29    O503      0.67559      .   S
    C208   O504      1.28825      .   S
    C0     O504      1.28825      .   S
    C208   O505      0.67555      .   S
    C16    O505      0.67555      .   S
    C0     O506      1.27931      .   S
    C223   O506      1.27931      .   S
    C0     O507      1.27931      .   S
    C221   O507      1.27931      .   S
    C191   O508      0.70369      .   S
    C192   O508      0.70369  1_545   S
    C191   O509      0.70336      .   S
    C190   O509      0.70336      .   S
    C203   O510      0.70339      .   S
    C204   O510      0.70339      .   S
    C203   O511      0.70334      .   S
    C202   O511      0.70334      .   S
    C92    O512      0.54487      .   S
    C192   O512      0.54487      .   S
    C105   O513      0.54396      .   S
    C204   O513      0.54396      .   S
    C91    O514      0.54538      .   S
    C190   O514      0.54538      .   S
    C104   O515      0.54540      .   S
    C202   O515      0.54540      .   S
    C204   O516      0.69355      .   S
    C205   O516      0.69355      .   S
    C192   O517      0.69232      .   S
    C193   O517      0.69232      .   S
    C190   O518      0.69612  1_565   S
    C189   O518      0.69612      .   S
    C202   O519      0.69715      .   S
    C201   O519      0.69715      .   S
