# CIF file generated by openbabel 2.4.90, see http://openbabel.sf.net
data_I
_chemical_name_common ''
_cell_length_a 22.087
_cell_length_b 17.892
_cell_length_c 20.541
_cell_angle_alpha 110.258
_cell_angle_beta 93.396
_cell_angle_gamma 89.007
_space_group_name_H-M_alt 'P 1'
_space_group_name_Hall 'P 1'
loop_
    _symmetry_equiv_pos_as_xyz
    x,y,z
loop_
    _atom_site_label
    _atom_site_type_symbol
    _atom_site_fract_x
    _atom_site_fract_y
    _atom_site_fract_z
    _atom_site_occupancy
    Zn0     Zn   0.59739   0.43772   0.22694   1.000
    Zn1     Zn   0.09315   0.54986   0.15480   1.000
    Zn2     Zn   0.59328   0.54975   0.15431   1.000
    Zn3     Zn   0.06958   0.93759   0.72224   1.000
    Zn4     Zn   0.57039   0.93744   0.72210   1.000
    Zn5     Zn   0.06343   0.04990   0.64984   1.000
    Zn6     Zn   0.56264   0.04977   0.64952   1.000
    Zn7     Zn   0.40263   0.56231   0.77300   1.000
    Zn8     Zn   0.90278   0.56191   0.77269   1.000
    Zn9     Zn   0.40733   0.45032   0.84572   1.000
    Zn10    Zn   0.90688   0.45014   0.84518   1.000
    Zn11    Zn   0.42963   0.06258   0.27789   1.000
    Zn12    Zn   0.93043   0.06244   0.27775   1.000
    Zn13    Zn   0.43737   0.95025   0.35047   1.000
    Zn14    Zn   0.93659   0.95013   0.35015   1.000
    Zn15    Zn   0.09769   0.43813   0.22735   1.000
    C16     C    0.09134   0.37417   0.07016   1.000
    C17     C    0.59221   0.37424   0.06961   1.000
    C18     C    0.07644   0.11517   0.80377   1.000
    C19     C    0.57737   0.11486   0.80352   1.000
    C20     C    0.21295   0.49134   0.19224   1.000
    C21     C    0.71299   0.49106   0.19260   1.000
    C22     C    0.47649   0.48522   0.19273   1.000
    C23     C    0.97650   0.48650   0.19292   1.000
    C24     C    0.09067   0.61443   0.30733   1.000
    C25     C    0.59047   0.61508   0.30636   1.000
    O26     O    0.08028   0.35517   0.12312   1.000
    O27     O    0.58130   0.35532   0.12266   1.000
    O28     O    0.10157   0.44392   0.07099   1.000
    O29     O    0.60227   0.44396   0.07026   1.000
    O30     O    0.08544   0.04529   0.80510   1.000
    C31     C    0.06224   0.87363   0.56849   1.000
    C32     C    0.56204   0.87332   0.56830   1.000
    C33     C    0.18479   0.98792   0.68699   1.000
    C34     C    0.68484   0.98745   0.68576   1.000
    C35     C    0.44778   0.99880   0.68635   1.000
    C36     C    0.94795   0.99863   0.68600   1.000
    C37     C    0.40787   0.62581   0.93038   1.000
    C38     C    0.90873   0.62586   0.92984   1.000
    C39     C    0.42264   0.88517   0.19647   1.000
    C40     C    0.92358   0.88487   0.19623   1.000
    C41     C    0.28721   0.50895   0.80745   1.000
    C42     C    0.78721   0.50871   0.80771   1.000
    C43     C    0.02370   0.51347   0.80700   1.000
    C44     C    0.52368   0.51486   0.80723   1.000
    C45     C    0.40960   0.38495   0.69362   1.000
    C46     C    0.90939   0.38559   0.69269   1.000
    C47     C    0.43798   0.12670   0.43168   1.000
    C48     C    0.93777   0.12640   0.43151   1.000
    C49     C    0.31517   0.01257   0.31423   1.000
    C50     C    0.81523   0.01211   0.31300   1.000
    C51     C    0.05206   0.00140   0.31400   1.000
    C52     C    0.55224   0.00121   0.31365   1.000
    O53     O    0.58640   0.04502   0.80493   1.000
    O54     O    0.06134   0.13333   0.75031   1.000
    O55     O    0.56227   0.13294   0.75002   1.000
    O56     O    0.18723   0.43681   0.20795   1.000
    O57     O    0.68757   0.43665   0.20872   1.000
    O58     O    0.18607   0.54604   0.17582   1.000
    O59     O    0.68583   0.54531   0.17576   1.000
    O60     O    0.50095   0.52006   0.15650   1.000
    O61     O    0.00000   0.52053   0.15570   1.000
    O62     O    0.50430   0.44735   0.22803   1.000
    O63     O    0.00000   0.44999   0.22903   1.000
    O64     O    0.10406   0.54600   0.31000   1.000
    O65     O    0.60268   0.54615   0.30869   1.000
    O66     O    0.08281   0.63156   0.25212   1.000
    O67     O    0.58376   0.63286   0.25140   1.000
    O68     O    0.05404   0.85583   0.62230   1.000
    O69     O    0.55489   0.85528   0.62221   1.000
    O70     O    0.06665   0.94375   0.56665   1.000
    O71     O    0.56531   0.94357   0.56647   1.000
    O72     O    0.16140   0.93479   0.70621   1.000
    O73     O    0.66170   0.93464   0.70562   1.000
    O74     O    0.15619   0.04017   0.66857   1.000
    O75     O    0.65596   0.03909   0.66681   1.000
    O76     O    0.47779   0.96432   0.72253   1.000
    O77     O    0.97755   0.96460   0.72288   1.000
    O78     O    0.46984   0.03547   0.64980   1.000
    O79     O    0.97052   0.03462   0.64924   1.000
    O80     O    0.41875   0.64474   0.87733   1.000
    O81     O    0.91982   0.64486   0.87689   1.000
    O82     O    0.39791   0.55607   0.92973   1.000
    O83     O    0.89849   0.55610   0.92899   1.000
    O84     O    0.41361   0.95501   0.19506   1.000
    O85     O    0.91458   0.95475   0.19489   1.000
    O86     O    0.43775   0.86709   0.24997   1.000
    O87     O    0.93868   0.86670   0.24960   1.000
    O88     O    0.31252   0.56339   0.79126   1.000
    O89     O    0.81301   0.56314   0.79195   1.000
    O90     O    0.31446   0.45480   0.82433   1.000
    O91     O    0.81401   0.45400   0.82420   1.000
    O92     O    0.99973   0.47947   0.84420   1.000
    O93     O    0.49931   0.47999   0.84352   1.000
    O94     O    0.99540   0.55003   0.77096   1.000
    O95     O    0.49577   0.55267   0.77197   1.000
    O96     O    0.39737   0.45387   0.69130   1.000
    O97     O    0.89605   0.45404   0.68997   1.000
    O98     O    0.41638   0.36717   0.74857   1.000
    O99     O    0.91724   0.36843   0.74789   1.000
    O100    O    0.44513   0.14474   0.37778   1.000
    O101    O    0.94597   0.14421   0.37770   1.000
    O102    O    0.43471   0.05645   0.43352   1.000
    O103    O    0.93336   0.05628   0.43334   1.000
    O104    O    0.33831   0.06539   0.29430   1.000
    O105    O    0.83862   0.06524   0.29379   1.000
    O106    O    0.34405   0.96093   0.33318   1.000
    O107    O    0.84384   0.95986   0.33143   1.000
    O108    O    0.02246   0.03543   0.27712   1.000
    O109    O    0.52223   0.03569   0.27740   1.000
    O110    O    0.02949   0.96540   0.35075   1.000
    O111    O    0.53018   0.96454   0.35019   1.000
loop_
    _geom_bond_atom_site_label_1
    _geom_bond_atom_site_label_2
    _geom_bond_distance
    _geom_bond_site_symmetry_2
    _ccdc_geom_bond_type
    C17    O29       1.26628      .   S
    C17    O27       1.28426      .   S
    C16    O28       1.26641      .   S
    C16    O26       1.28406      .   S
    O29    Zn2       2.08984      .   S
    O28    Zn1       2.08736      .   S
    O27    Zn0       2.15156      .   S
    O26    Zn15      2.15786      .   S
    Zn2    O60       2.12319      .   S
    Zn2    O59       2.07146      .   S
    Zn2    O67       2.05377      .   S
    Zn1    O61       2.13485      .   S
    Zn1    O58       2.07698      .   S
    Zn1    O66       2.05040      .   S
    O61    C23       1.26683  1_455   S
    O60    C22       1.27080      .   S
    O59    C21       1.26868      .   S
    O58    C20       1.26832      .   S
    C20    O56       1.27983      .   S
    C21    O57       1.27928      .   S
    C22    O62       1.27873      .   S
    C23    O63       1.23466  1_655   S
    O85    C40       1.27199      .   S
    O85    Zn12      2.10097  1_565   S
    O84    C39       1.27194      .   S
    O84    Zn11      2.09972  1_565   S
    C40    O87       1.27215      .   S
    C39    O86       1.27385      .   S
    O56    Zn15      2.03856      .   S
    O57    Zn0       2.04685      .   S
    Zn0    O62       2.06111      .   S
    Zn0    O65       2.07988      .   S
    Zn15   O63       2.16555      .   S
    Zn15   O64       2.08305      .   S
    O87    Zn14      2.09043      .   S
    O86    Zn13      2.08572      .   S
    O67    C25       1.27471      .   S
    O66    C24       1.27507      .   S
    O108   Zn12      2.08086  1_455   S
    O108   C51       1.27232      .   S
    O109   Zn11      2.09276      .   S
    O109   C52       1.27270      .   S
    Zn12   O105      2.07067      .   S
    Zn12   O101      2.08016      .   S
    Zn11   O104      2.06128      .   S
    Zn11   O100      2.08173      .   S
    O105   C50       1.27564      .   S
    O104   C49       1.27724      .   S
    C25    O65       1.27427      .   S
    C24    O64       1.27331      .   S
    C50    O107      1.26991  1_545   S
    C52    O111      1.27544  1_545   S
    C51    O110      1.27506  1_545   S
    C49    O106      1.26932  1_545   S
    O107   Zn14      2.07751      .   S
    O106   Zn13      2.08753      .   S
    Zn14   O110      2.07349  1_655   S
    Zn14   O103      2.07233  1_565   S
    O111   Zn13      2.07064      .   S
    Zn13   O102      2.07053  1_565   S
    O101   C48       1.27503      .   S
    O100   C47       1.27473      .   S
    C48    O103      1.27368      .   S
    C47    O102      1.27391      .   S
    O71    C32       1.27386      .   S
    O71    Zn6       2.07059  1_565   S
    O70    C31       1.27374      .   S
    O70    Zn5       2.07229  1_565   S
    C32    O69       1.27492      .   S
    C31    O68       1.27501      .   S
    O69    Zn4       2.08177      .   S
    O68    Zn3       2.08004      .   S
    O79    Zn5       2.07354  1_655   S
    O79    C36       1.27514  1_545   S
    Zn6    O78       2.07060      .   S
    Zn6    O75       2.08748      .   S
    Zn6    O55       2.08578      .   S
    O78    C35       1.27561  1_545   S
    Zn5    O74       2.07760      .   S
    Zn5    O54       2.08925      .   S
    O75    C34       1.26935  1_545   S
    O74    C33       1.26986  1_545   S
    C34    O73       1.27629      .   S
    C36    O77       1.27235      .   S
    C35    O76       1.27176      .   S
    C33    O72       1.27575      .   S
    O97    C46       1.27387      .   S
    O97    Zn8       2.08408      .   S
    O96    C45       1.27422      .   S
    O96    Zn7       2.07946      .   S
    C46    O99       1.27510      .   S
    C45    O98       1.27457      .   S
    O73    Zn4       2.06155      .   S
    O72    Zn3       2.07062      .   S
    Zn4    O76       2.09270      .   S
    Zn4    O53       2.09983  1_565   S
    Zn3    O77       2.08088  1_455   S
    Zn3    O30       2.10095  1_565   S
    O99    Zn10      2.05009      .   S
    O98    Zn9       2.05343      .   S
    O55    C19       1.27384      .   S
    O54    C18       1.27388      .   S
    O94    Zn8       2.05410      .   S
    O94    C43       1.27789  1_655   S
    O95    Zn7       2.06211      .   S
    O95    C44       1.27832      .   S
    Zn8    O89       2.04287      .   S
    Zn8    O81       2.15630      .   S
    Zn7    O88       2.04549      .   S
    Zn7    O80       2.15261      .   S
    O88    C41       1.27960      .   S
    O89    C42       1.27967      .   S
    C19    O53       1.27192      .   S
    C18    O30       1.27194      .   S
    C43    O92       1.27084  1_455   S
    C44    O93       1.27124      .   S
    C41    O90       1.26836      .   S
    C42    O91       1.26841      .   S
    O91    Zn10      2.07571      .   S
    O90    Zn9       2.07825      .   S
    O93    Zn9       2.11542      .   S
    O92    Zn10      2.12873      .   S
    Zn10   O83       2.08751      .   S
    Zn9    O82       2.09013      .   S
    O81    C38       1.28415      .   S
    O80    C37       1.28432      .   S
    O83    C38       1.26631      .   S
    O82    C37       1.26623      .   S
    Zn15   Zn1       2.87499      .   S
    Zn0    Zn2       2.88099      .   S
    Zn3    Zn5       2.88166  1_565   S
    Zn4    Zn6       2.88514  1_565   S
    Zn7    Zn9       2.88167      .   S
    Zn8    Zn10      2.87481      .   S
    Zn11   Zn13      2.88512  1_545   S
    Zn12   Zn14      2.88179  1_545   S
