# CIF file generated by openbabel 2.4.90, see http://openbabel.sf.net
data_I
_chemical_name_common ''
_cell_length_a 22.087
_cell_length_b 17.892
_cell_length_c 20.541
_cell_angle_alpha 110.258
_cell_angle_beta 93.396
_cell_angle_gamma 89.007
_space_group_name_H-M_alt 'P 1'
_space_group_name_Hall 'P 1'
loop_
    _symmetry_equiv_pos_as_xyz
    x,y,z
loop_
    _atom_site_label
    _atom_site_type_symbol
    _atom_site_fract_x
    _atom_site_fract_y
    _atom_site_fract_z
    _atom_site_occupancy
    N0      N    0.92481   0.25639   0.56218   1.000
    N1      N    0.31624   0.99251   0.68614   1.000
    N2      N    0.61128   0.25587   0.45245   1.000
    N3      N    0.55900   0.75233   0.94516   1.000
    N4      N    0.08759   0.24525   0.93670   1.000
    N5      N    0.81634   0.99228   0.68513   1.000
    N6      N    0.11097   0.25614   0.45261   1.000
    N7      N    0.42491   0.25625   0.56269   1.000
    N8      N    0.94030   0.24779   0.05464   1.000
    N9      N    0.34477   0.48881   0.19354   1.000
    N10     N    0.05942   0.75225   0.94536   1.000
    N11     N    0.65538   0.51129   0.80640   1.000
    N12     N    0.91245   0.75478   0.06320   1.000
    N13     N    0.38876   0.74415   0.54752   1.000
    N14     N    0.57511   0.74377   0.43727   1.000
    N15     N    0.44105   0.24769   0.05483   1.000
    N16     N    0.88909   0.74387   0.54734   1.000
    N17     N    0.07521   0.74364   0.43782   1.000
    N18     N    0.15539   0.51070   0.80612   1.000
    N19     N    0.84480   0.48924   0.19391   1.000
    N20     N    0.58845   0.24513   0.93625   1.000
    N21     N    0.18368   0.00774   0.31485   1.000
    N22     N    0.41157   0.75491   0.06366   1.000
    N23     N    0.68378   0.00751   0.31384   1.000
    Zr24    Zr   0.90660   0.50827   0.80930   1.000
    O25     O    0.91589   0.41925   0.88657   1.000
    O26     O    0.90006   0.58955   0.72717   1.000
    O27     O    0.90865   0.60759   0.91153   1.000
    O28     O    0.00657   0.50996   0.80779   1.000
    O29     O    0.91282   0.40629   0.70992   1.000
    O30     O    0.80543   0.50929   0.80805   1.000
    Zr31    Zr   0.40649   0.50856   0.80967   1.000
    O32     O    0.39986   0.58982   0.72743   1.000
    O33     O    0.41610   0.41941   0.88693   1.000
    O34     O    0.50651   0.51054   0.80812   1.000
    O35     O    0.30537   0.50929   0.80810   1.000
    O36     O    0.41283   0.40628   0.71044   1.000
    O37     O    0.40816   0.60778   0.91195   1.000
    Zr38    Zr   0.06697   0.99394   0.68633   1.000
    O39     O    0.06520   0.91053   0.76744   1.000
    O40     O    0.96605   0.99429   0.68587   1.000
    O41     O    0.16724   0.99228   0.68633   1.000
    O42     O    0.07536   0.09552   0.78685   1.000
    O43     O    0.07821   0.08310   0.61214   1.000
    O44     O    0.06858   0.89286   0.58629   1.000
    Zr45    Zr   0.56709   0.99371   0.68600   1.000
    O46     O    0.56857   0.89273   0.58593   1.000
    O47     O    0.46605   0.99427   0.68610   1.000
    O48     O    0.57586   0.09531   0.78650   1.000
    O49     O    0.66734   0.99201   0.68561   1.000
    O50     O    0.57822   0.08287   0.61185   1.000
    O51     O    0.56527   0.91043   0.76721   1.000
    Zr52    Zr   0.59368   0.49148   0.19033   1.000
    O53     O    0.69481   0.49071   0.19192   1.000
    O54     O    0.59194   0.39226   0.08802   1.000
    O55     O    0.49365   0.48952   0.19186   1.000
    O56     O    0.58409   0.58063   0.11307   1.000
    O57     O    0.58727   0.59375   0.28954   1.000
    O58     O    0.60024   0.41021   0.27254   1.000
    Zr59    Zr   0.09317   0.49175   0.19068   1.000
    O60     O    0.08394   0.58077   0.11342   1.000
    O61     O    0.09125   0.39243   0.08843   1.000
    O62     O    0.99341   0.49002   0.19220   1.000
    O63     O    0.19453   0.49076   0.19191   1.000
    O64     O    0.08708   0.59372   0.29007   1.000
    O65     O    0.09992   0.41046   0.27280   1.000
    Zr66    Zr   0.43293   0.00631   0.31399   1.000
    O67     O    0.42181   0.91715   0.38813   1.000
    O68     O    0.53397   0.00575   0.31389   1.000
    O69     O    0.42416   0.90472   0.21347   1.000
    O70     O    0.43144   0.10729   0.41405   1.000
    O71     O    0.33268   0.00802   0.31438   1.000
    O72     O    0.43475   0.08959   0.23278   1.000
    Zr73    Zr   0.93305   0.00609   0.31366   1.000
    O74     O    0.93144   0.10717   0.41370   1.000
    O75     O    0.92467   0.90451   0.21312   1.000
    O76     O    0.83278   0.00775   0.31365   1.000
    O77     O    0.03396   0.00574   0.31412   1.000
    O78     O    0.92182   0.91693   0.38784   1.000
    O79     O    0.93474   0.08951   0.23255   1.000
loop_
    _geom_bond_atom_site_label_1
    _geom_bond_atom_site_label_2
    _geom_bond_distance
    _geom_bond_site_symmetry_2
    _ccdc_geom_bond_type
    Zr24   O25       2.60742      .   S
    N8     O25       5.35510  1_554   S
    Zr24   O26       2.57771      .   S
    N16    O26       5.31610      .   S
    Zr24   O27       2.23096      .   S
    N12    O27       3.30803  1_554   S
    Zr24   O28       2.21092  1_655   S
    N18    O28       3.28936      .   S
    Zr24   O29       2.22707      .   S
    N0     O29       3.30273      .   S
    Zr24   O30       2.23307      .   S
    N11    O30       3.31194      .   S
    Zr31   O32       2.57940      .   S
    N13    O32       5.31750      .   S
    Zr31   O33       2.60950      .   S
    N15    O33       5.35640  1_554   S
    Zr31   O34       2.21243      .   S
    N11    O34       3.29077      .   S
    Zr31   O35       2.23152      .   S
    N18    O35       3.31033      .   S
    Zr31   O36       2.22824      .   S
    N7     O36       3.30420      .   S
    Zr31   O37       2.23084      .   S
    N22    O37       3.30835  1_554   S
    Zr38   O39       2.59550      .   S
    N10    O39       5.35054      .   S
    Zr38   O40       2.22829  1_455   S
    N5     O40       3.30669      .   S
    Zr38   O41       2.21441      .   S
    N1     O41       3.29124      .   S
    Zr38   O42       2.22901  1_565   S
    N4     O42       3.30772      .   S
    Zr38   O43       2.58266  1_565   S
    N6     O43       5.31335      .   S
    Zr38   O44       2.21979      .   S
    N17    O44       3.29420      .   S
    Zr45   O46       2.21923      .   S
    N14    O46       3.29408      .   S
    Zr45   O47       2.23158      .   S
    N1     O47       3.30962      .   S
    Zr45   O48       2.22931  1_565   S
    N20    O48       3.30739      .   S
    Zr45   O49       2.21439      .   S
    N5     O49       3.29159      .   S
    Zr45   O50       2.58167  1_565   S
    N2     O50       5.31182      .   S
    Zr45   O51       2.59545      .   S
    N3     O51       5.34938      .   S
    Zr52   O53       2.23179      .   S
    N19    O53       3.31049      .   S
    Zr52   O54       2.23127      .   S
    N20    O54       3.30914  1_556   S
    Zr52   O55       2.21249      .   S
    N9     O55       3.29093      .   S
    Zr52   O56       2.60940      .   S
    N3     O56       5.35651  1_556   S
    Zr52   O57       2.22809      .   S
    N14    O57       3.30400      .   S
    Zr52   O58       2.57907      .   S
    N2     O58       5.31767      .   S
    Zr59   O60       2.60732      .   S
    N10    O60       5.35523  1_556   S
    Zr59   O61       2.23120      .   S
    N4     O61       3.30884  1_556   S
    Zr59   O62       2.20633  1_455   S
    N19    O62       3.28489      .   S
    Zr59   O63       2.23734      .   S
    N9     O63       3.31609      .   S
    Zr59   O64       2.22697      .   S
    N17    O64       3.30254      .   S
    Zr59   O65       2.57760      .   S
    N6     O65       5.31581      .   S
    Zr66   O67       2.58166  1_545   S
    N13    O67       5.31163      .   S
    Zr66   O68       2.23159      .   S
    N23    O68       3.30964      .   S
    Zr66   O69       2.22945  1_545   S
    N22    O69       3.30807      .   S
    Zr66   O70       2.21914      .   S
    N7     O70       3.29387      .   S
    Zr66   O71       2.21441      .   S
    N21    O71       3.29160      .   S
    Zr66   O72       2.59537      .   S
    N15    O72       5.34937      .   S
    Zr73   O74       2.21978      .   S
    N0     O74       3.29423      .   S
    Zr73   O75       2.22927  1_545   S
    N12    O75       3.30862      .   S
    Zr73   O76       2.21438      .   S
    N23    O76       3.29121      .   S
    Zr73   O77       2.22828  1_655   S
    N21    O77       3.30669      .   S
    Zr73   O78       2.58257  1_545   S
    N16    O78       5.31288      .   S
    Zr73   O79       2.59539      .   S
    N8     O79       5.35011      .   S
