# CIF file generated by openbabel 2.4.90, see http://openbabel.sf.net
data_I
_chemical_name_common ''
_cell_length_a 20.935
_cell_length_b 20.946
_cell_length_c 16.318
_cell_angle_alpha 80.949
_cell_angle_beta 81.04
_cell_angle_gamma 49.407
_space_group_name_H-M_alt 'P 1'
_space_group_name_Hall 'P 1'
loop_
    _symmetry_equiv_pos_as_xyz
    x,y,z
loop_
    _atom_site_label
    _atom_site_type_symbol
    _atom_site_fract_x
    _atom_site_fract_y
    _atom_site_fract_z
    _atom_site_occupancy
    Zr0     Zr   0.35686   0.39637   0.21026   1.000
    Zr1     Zr   0.35686   0.89636   0.21026   1.000
    Zr2     Zr   0.85685   0.39637   0.21026   1.000
    Zr3     Zr   0.85686   0.89636   0.21026   1.000
    Zr4     Zr   0.10400   0.14367   0.28961   1.000
    Zr5     Zr   0.10400   0.64366   0.28961   1.000
    Zr6     Zr   0.60400   0.14366   0.28961   1.000
    Zr7     Zr   0.60400   0.64365   0.28961   1.000
    Zr8     Zr   0.14310   0.10364   0.78978   1.000
    Zr9     Zr   0.14310   0.60363   0.78978   1.000
    Zr10    Zr   0.64310   0.10364   0.78978   1.000
    Zr11    Zr   0.64310   0.60363   0.78978   1.000
    Zr12    Zr   0.39596   0.35635   0.71042   1.000
    Zr13    Zr   0.39597   0.85634   0.71042   1.000
    Zr14    Zr   0.89597   0.35634   0.71042   1.000
    Zr15    Zr   0.89597   0.85633   0.71042   1.000
    Zr16    Zr   0.00813   0.49228   0.25003   1.000
    Zr17    Zr   0.00813   0.99227   0.25003   1.000
    Zr18    Zr   0.50813   0.49228   0.25004   1.000
    Zr19    Zr   0.50813   0.99227   0.25003   1.000
    Zr20    Zr   0.49183   0.00772   0.75000   1.000
    Zr21    Zr   0.49184   0.50771   0.70000   1.000
    Zr22    Zr   0.99183   0.00772   0.75000   1.000
    Zr23    Zr   0.99183   0.50771   0.75000   1.000
    N24     N    0.06844   0.80504   0.42314   1.000
    O25     O    0.08658   0.74729   0.36865   1.000
    O26     O    0.04854   0.86872   0.35543   1.000
    N27     N    0.93153   0.69495   0.57689   1.000
    O28     O    0.91338   0.75270   0.63138   1.000
    O29     O    0.95143   0.63126   0.64460   1.000
    N30     N    0.56843   0.30505   0.42310   1.000
    O31     O    0.54853   0.36873   0.35541   1.000
    O32     O    0.58658   0.24730   0.36863   1.000
    N33     N    0.56843   0.80504   0.42310   1.000
    O34     O    0.54853   0.86872   0.35541   1.000
    O35     O    0.58658   0.74729   0.36863   1.000
    N36     N    0.69506   0.43174   0.07626   1.000
    O37     O    0.63145   0.45186   0.14427   1.000
    O38     O    0.75294   0.41374   0.13101   1.000
    N39     N    0.06844   0.30505   0.42314   1.000
    O40     O    0.08658   0.24730   0.36865   1.000
    O41     O    0.04853   0.36873   0.35543   1.000
    N42     N    0.80489   0.06826   0.92319   1.000
    O43     O    0.74701   0.08626   0.86874   1.000
    O44     O    0.86850   0.04815   0.85547   1.000
    N45     N    0.19507   0.43174   0.07651   1.000
    O46     O    0.13146   0.45186   0.14440   1.000
    O47     O    0.25295   0.41374   0.13113   1.000
    N48     N    0.69506   0.93173   0.07651   1.000
    O49     O    0.63145   0.95185   0.14440   1.000
    O50     O    0.75295   0.91373   0.13113   1.000
    N51     N    0.19507   0.93173   0.07651   1.000
    O52     O    0.13146   0.95185   0.14440   1.000
    O53     O    0.25295   0.91373   0.13113   1.000
    N54     N    0.30490   0.06827   0.92319   1.000
    O55     O    0.24701   0.08627   0.86874   1.000
    O56     O    0.36851   0.04815   0.85547   1.000
    N57     N    0.43153   0.69495   0.57689   1.000
    O58     O    0.41339   0.75270   0.63138   1.000
    O59     O    0.45143   0.63126   0.63209   1.000
    N60     N    0.43153   0.19496   0.57688   1.000
    O61     O    0.41338   0.25271   0.63138   1.000
    O62     O    0.45143   0.13127   0.64460   1.000
    N63     N    0.30490   0.56826   0.92319   1.000
    O64     O    0.24702   0.58626   0.86874   1.000
    N65     N    0.80490   0.56826   0.92319   1.000
    O66     O    0.74701   0.58626   0.86874   1.000
    O67     O    0.86851   0.54814   0.85547   1.000
    N68     N    0.93153   0.19496   0.57689   1.000
    O69     O    0.91338   0.25271   0.63138   1.000
    O70     O    0.95143   0.13127   0.64460   1.000
    C71     C    0.99597   0.91893   0.64932   1.000
    O72     O    0.02009   0.87983   0.57920   1.000
    O73     O    0.00842   0.94132   0.67375   1.000
    O74     O    0.95523   0.90717   0.66984   1.000
    C75     C    0.49597   0.41895   0.64932   1.000
    O76     O    0.52009   0.37984   0.57919   1.000
    O77     O    0.50842   0.44133   0.66125   1.000
    O78     O    0.45522   0.40718   0.66984   1.000
    C79     C    0.49597   0.91893   0.64932   1.000
    O80     O    0.52009   0.87983   0.57919   1.000
    O81     O    0.50842   0.94132   0.67375   1.000
    O82     O    0.45523   0.90717   0.66984   1.000
    C83     C    0.59729   0.69814   0.67151   1.000
    O84     O    0.53423   0.75012   0.69229   1.000
    O85     O    0.58650   0.73481   0.59347   1.000
    C86     C    0.08084   0.50339   0.85063   1.000
    O87     O    0.05846   0.49095   0.82622   1.000
    O88     O    0.09245   0.54423   0.83016   1.000
    O89     O    0.12005   0.47949   0.92069   1.000
    C90     C    0.80169   0.90197   0.82859   1.000
    O91     O    0.74961   0.96521   0.80782   1.000
    O92     O    0.76511   0.91300   0.90650   1.000
    C93     C    0.30169   0.90197   0.82859   1.000
    O94     O    0.24961   0.96521   0.80782   1.000
    O95     O    0.26512   0.91300   0.90650   1.000
    C96     C    0.58084   0.00338   0.85064   1.000
    O97     O    0.55846   0.99095   0.82622   1.000
    O98     O    0.59244   0.04423   0.83017   1.000
    O99     O    0.62005   0.97948   0.92069   1.000
    C100    C    0.99596   0.41894   0.64932   1.000
    O101    O    0.95522   0.40718   0.66984   1.000
    O102    O    0.00842   0.44133   0.67375   1.000
    O103    O    0.02009   0.37984   0.57920   1.000
    C104    C    0.09729   0.19815   0.67149   1.000
    O105    O    0.03423   0.25013   0.69228   1.000
    O106    O    0.08651   0.23482   0.59346   1.000
    C107    C    0.09729   0.69814   0.67149   1.000
    O108    O    0.08651   0.73481   0.59346   1.000
    O109    O    0.03423   0.75012   0.69228   1.000
    C110    C    0.59728   0.19815   0.67149   1.000
    O111    O    0.53423   0.25013   0.69228   1.000
    O112    O    0.58650   0.23482   0.59345   1.000
    C113    C    0.58084   0.50339   0.85064   1.000
    O114    O    0.59245   0.54422   0.83017   1.000
    O115    O    0.62005   0.47949   0.92063   1.000
    C116    C    0.30169   0.40198   0.82859   1.000
    O117    O    0.24961   0.46521   0.80782   1.000
    O118    O    0.26512   0.41301   0.90650   1.000
    C119    C    0.80169   0.40198   0.82859   1.000
    O120    O    0.76511   0.41300   0.90644   1.000
    O121    O    0.74960   0.46521   0.80782   1.000
    C122    C    0.08084   0.00339   0.85064   1.000
    O123    O    0.12005   0.97949   0.92069   1.000
    O124    O    0.09245   0.04423   0.83016   1.000
    O125    O    0.05846   0.99095   0.82622   1.000
    C126    C    0.19827   0.09803   0.17144   1.000
    O127    O    0.23485   0.08700   0.09345   1.000
    O128    O    0.25035   0.03479   0.19221   1.000
    C129    C    0.19828   0.59802   0.17144   1.000
    O130    O    0.23485   0.58699   0.09345   1.000
    O131    O    0.25036   0.53478   0.19221   1.000
    C132    C    0.69827   0.59802   0.17144   1.000
    O133    O    0.73484   0.58699   0.09345   1.000
    O134    O    0.75035   0.53478   0.19221   1.000
    C135    C    0.00400   0.08106   0.35071   1.000
    O136    O    0.04474   0.09283   0.33019   1.000
    O137    O    0.97987   0.12016   0.42083   1.000
    O138    O    0.99154   0.05868   0.32628   1.000
    C139    C    0.91912   0.49660   0.14939   1.000
    O140    O    0.87991   0.52050   0.07926   1.000
    O141    O    0.90751   0.45577   0.16986   1.000
    O142    O    0.94150   0.50904   0.17381   1.000
    C143    C    0.90267   0.30186   0.32853   1.000
    O144    O    0.91345   0.26519   0.40656   1.000
    O145    O    0.96572   0.24988   0.30774   1.000
    C146    C    0.69827   0.09803   0.17144   1.000
    O147    O    0.73484   0.08700   0.09345   1.000
    O148    O    0.75035   0.03479   0.19221   1.000
    C149    C    0.50400   0.58105   0.35070   1.000
    O150    O    0.54474   0.59282   0.33018   1.000
    O151    O    0.47988   0.62015   0.42083   1.000
    O152    O    0.49154   0.55867   0.32628   1.000
    C153    C    0.91912   0.99660   0.14939   1.000
    O154    O    0.90751   0.95577   0.16986   1.000
    O155    O    0.87991   0.02051   0.07926   1.000
    O156    O    0.94150   0.00904   0.17381   1.000
    C157    C    0.41912   0.49661   0.14939   1.000
    O158    O    0.44150   0.50905   0.17381   1.000
    O159    O    0.40752   0.45577   0.16986   1.000
    O160    O    0.37991   0.52051   0.07926   1.000
    C161    C    0.50400   0.08106   0.35070   1.000
    O162    O    0.47987   0.12016   0.42083   1.000
    O163    O    0.49154   0.05868   0.32627   1.000
    O164    O    0.54474   0.09283   0.33018   1.000
    C165    C    0.41912   0.99661   0.14939   1.000
    O166    O    0.44150   0.00905   0.17381   1.000
    O167    O    0.37991   0.02051   0.07926   1.000
    O168    O    0.40752   0.95577   0.16986   1.000
    C169    C    0.40267   0.80185   0.32826   1.000
    O170    O    0.46573   0.74987   0.30761   1.000
    O171    O    0.41346   0.76518   0.40642   1.000
    C172    C    0.40267   0.30186   0.32853   1.000
    O173    O    0.46573   0.24988   0.30774   1.000
    O174    O    0.41345   0.26519   0.40656   1.000
    C175    C    0.90267   0.80185   0.32853   1.000
    O176    O    0.91345   0.76518   0.40656   1.000
    O177    O    0.96573   0.74987   0.30774   1.000
    C178    C    0.00400   0.58105   0.35070   1.000
    O179    O    0.04474   0.59282   0.33018   1.000
    O180    O    0.99154   0.55867   0.32627   1.000
    O181    O    0.97988   0.62015   0.42083   1.000
    O182    O    0.39055   0.32732   0.29609   1.000
    O183    O    0.32709   0.38991   0.79618   1.000
    O184    O    0.89055   0.32732   0.29609   1.000
    O185    O    0.10940   0.17269   0.70394   1.000
    O186    O    0.10941   0.67268   0.70394   1.000
    O187    O    0.17287   0.11010   0.20385   1.000
    O188    O    0.67287   0.61009   0.20385   1.000
    O189    O    0.60940   0.17269   0.70394   1.000
    O190    O    0.82709   0.88990   0.79618   1.000
    O191    O    0.17288   0.61009   0.20385   1.000
    O192    O    0.82709   0.38991   0.79618   1.000
    O193    O    0.39056   0.82731   0.29586   1.000
    O194    O    0.32709   0.88990   0.79618   1.000
    O195    O    0.60940   0.67268   0.70394   1.000
    O196    O    0.67287   0.11010   0.20385   1.000
    O197    O    0.89055   0.82731   0.29609   1.000
loop_
    _geom_bond_atom_site_label_1
    _geom_bond_atom_site_label_2
    _geom_bond_distance
    _geom_bond_site_symmetry_2
    _ccdc_geom_bond_type
    N24    O25       1.42594      .   S
    Zr5    O25       2.49254      .   S
    N24    O26       1.45953      .   S
    Zr17   O26       2.56406      .   S
    N27    O28       1.42595      .   S
    Zr15   O28       2.49263      .   S
    N27    O29       1.45952      .   S
    Zr23   O29       2.56412      .   S
    N30    O31       1.45924      .   S
    Zr18   O31       2.56388      .   S
    N30    O32       1.42571      .   S
    Zr6    O32       2.49233      .   S
    N33    O34       1.45931      .   S
    Zr19   O34       2.56398      .   S
    N33    O35       1.42575      .   S
    Zr7    O35       2.49238      .   S
    N36    O37       1.46261      .   S
    Zr18   O37       2.56675      .   S
    N36    O38       1.43016      .   S
    Zr2    O38       2.49706      .   S
    N39    O40       1.42594      .   S
    Zr4    O40       2.49255      .   S
    N39    O41       1.45953      .   S
    Zr16   O41       2.56407      .   S
    N42    O43       1.42676      .   S
    Zr10   O43       2.49404      .   S
    N42    O44       1.45947      .   S
    Zr22   O44       2.56404      .   S
    N45    O46       1.46125      .   S
    Zr16   O46       2.56556      .   S
    N45    O47       1.42872      .   S
    Zr0    O47       2.49580      .   S
    N48    O49       1.46125      .   S
    Zr19   O49       2.56555      .   S
    N48    O50       1.42871      .   S
    Zr3    O50       2.49577      .   S
    N51    O52       1.46126      .   S
    Zr17   O52       2.56557      .   S
    N51    O53       1.42871      .   S
    Zr1    O53       2.49579      .   S
    N54    O55       1.42676      .   S
    Zr8    O55       2.49401      .   S
    N54    O56       1.45946      .   S
    Zr20   O56       2.56402      .   S
    N57    O58       1.42596      .   S
    Zr13   O58       2.49264      .   S
    N57    O59       1.33422      .   S
    Zr21   O59       2.27629      .   S
    N60    O61       1.42598      .   S
    Zr12   O61       2.49266      .   S
    N60    O62       1.45956      .   S
    Zr20   O62       2.56416      .   S
    N63    O64       1.42676      .   S
    Zr9    O64       2.49403      .   S
    N65    O66       1.42677      .   S
    Zr11   O66       2.49405      .   S
    N65    O67       1.45947      .   S
    Zr23   O67       2.56403      .   S
    N68    O69       1.42595      .   S
    Zr14   O69       2.49262      .   S
    N68    O70       1.45952      .   S
    Zr22   O70       2.56411      .   S
    C71    O72       1.34602  1_655   S
    N24    O72       2.89012      .   S
    C71    O73       0.83492  1_655   S
    Zr22   O73       1.83968  1_645   S
    C71    O74       1.02905      .   S
    Zr15   O74       2.08628      .   S
    C75    O76       1.34617      .   S
    N30    O76       2.89056      .   S
    C75    O77       0.72751      .   S
    Zr21   O77       1.42612      .   S
    C75    O78       1.02907      .   S
    Zr12   O78       2.08630      .   S
    C79    O80       1.34614      .   S
    N33    O80       2.89048      .   S
    C79    O81       0.83492      .   S
    Zr20   O81       1.83967  1_545   S
    C79    O82       1.02906      .   S
    Zr13   O82       2.08629      .   S
    C83    O84       1.07208      .   S
    Zr13   O84       2.23059      .   S
    C83    O85       1.34862      .   S
    N33    O85       2.88999      .   S
    C86    O87       0.83418      .   S
    Zr23   O87       1.83881  1_655   S
    C86    O88       1.02836      .   S
    Zr9    O88       2.08531      .   S
    C86    O89       1.34490      .   S
    N45    O89       2.88641  1_554   S
    C90    O91       1.07357      .   S
    Zr10   O91       2.23342  1_545   S
    C90    O92       1.34718      .   S
    N48    O92       2.88567  1_554   S
    C93    O94       1.07358      .   S
    Zr8    O94       2.23343  1_545   S
    C93    O95       1.34718      .   S
    N51    O95       2.88567  1_554   S
    C96    O97       0.83412  1_545   S
    Zr20   O97       1.83877  1_545   S
    C96    O98       1.02848      .   S
    Zr10   O98       2.08542      .   S
    C96    O99       1.34485  1_545   S
    N48    O99       2.88635  1_554   S
    C100   O101      1.02905      .   S
    Zr14   O101      2.08629      .   S
    C100   O102      0.83485  1_655   S
    Zr23   O102      1.83947  1_655   S
    C100   O103      1.34602  1_655   S
    N39    O103      2.89012      .   S
    C104   O105      1.07213      .   S
    Zr14   O105      2.23061  1_655   S
    C104   O106      1.34847      .   S
    N39    O106      2.88943      .   S
    C107   O108      1.34847      .   S
    N24    O108      2.88942      .   S
    C107   O109      1.07213      .   S
    Zr15   O109      2.23061  1_655   S
    C110   O111      1.07212      .   S
    Zr12   O111      2.23062      .   S
    C110   O112      1.34861      .   S
    N30    O112      2.88985      .   S
    C113   O114      1.02835      .   S
    Zr11   O114      2.08532      .   S
    C113   O115      1.34396      .   S
    N36    O115      2.88360  1_554   S
    C116   O117      1.07351      .   S
    Zr9    O117      2.23322      .   S
    C116   O118      1.34718      .   S
    N45    O118      2.88567  1_554   S
    C119   O120      1.34629      .   S
    N36    O120      2.88293  1_554   S
    C119   O121      1.07352      .   S
    Zr11   O121      2.23321      .   S
    C122   O123      1.34485  1_545   S
    N51    O123      2.88636  1_554   S
    C122   O124      1.02849      .   S
    Zr8    O124      2.08543      .   S
    C122   O125      0.83413  1_545   S
    Zr22   O125      1.83884  1_645   S
    C126   O127      1.34837      .   S
    N54    O127      2.88933  1_556   S
    C126   O128      1.07359      .   S
    Zr1    O128      2.23343  1_565   S
    C129   O130      1.34837      .   S
    N63    O130      2.88934  1_556   S
    C129   O131      1.07353      .   S
    Zr0    O131      2.23322      .   S
    C132   O133      1.34837      .   S
    N65    O133      2.88934  1_556   S
    C132   O134      1.07353      .   S
    Zr2    O134      2.23322      .   S
    C135   O136      1.02905      .   S
    Zr4    O136      2.08628      .   S
    C135   O137      1.34600  1_455   S
    N68    O137      2.89006      .   S
    C135   O138      0.83495  1_455   S
    Zr17   O138      1.83972  1_465   S
    C139   O140      1.34604      .   S
    N65    O140      2.89005  1_556   S
    C139   O141      1.02837      .   S
    Zr2    O141      2.08534      .   S
    C139   O142      0.83419      .   S
    Zr16   O142      1.83893  1_455   S
    C143   O144      1.34849      .   S
    N68    O144      2.88956      .   S
    C143   O145      1.07213      .   S
    Zr4    O145      2.23066  1_455   S
    C146   O147      1.34837      .   S
    N42    O147      2.88934  1_556   S
    C146   O148      1.07359      .   S
    Zr3    O148      2.23344  1_565   S
    C149   O150      1.02907      .   S
    Zr7    O150      2.08627      .   S
    C149   O151      1.34604      .   S
    N57    O151      2.89009      .   S
    C149   O152      0.83482      .   S
    Zr18   O152      1.83938      .   S
    C153   O154      1.02850      .   S
    Zr3    O154      2.08545      .   S
    C153   O155      1.34603  1_565   S
    N42    O155      2.89005  1_556   S
    C153   O156      0.83416  1_565   S
    Zr17   O156      1.83885  1_465   S
    C157   O158      0.83417      .   S
    Zr18   O158      1.83896      .   S
    C157   O159      1.02837      .   S
    Zr0    O159      2.08535      .   S
    C157   O160      1.34603      .   S
    N63    O160      2.89004  1_556   S
    C161   O162      1.34603      .   S
    N60    O162      2.89005      .   S
    C161   O163      0.83491      .   S
    Zr19   O163      1.83968  1_565   S
    C161   O164      1.02907      .   S
    Zr6    O164      2.08627      .   S
    C165   O166      0.83413  1_565   S
    Zr19   O166      1.83880  1_565   S
    C165   O167      1.34603  1_565   S
    N54    O167      2.89004  1_556   S
    C165   O168      1.02849      .   S
    Zr1    O168      2.08546      .   S
    C169   O170      1.07151      .   S
    Zr7    O170      2.23048      .   S
    C169   O171      1.35038      .   S
    N57    O171      2.89148      .   S
    C172   O173      1.07212      .   S
    Zr6    O173      2.23067      .   S
    C172   O174      1.34847      .   S
    N60    O174      2.88950      .   S
    C175   O176      1.34849      .   S
    N27    O176      2.88956      .   S
    C175   O177      1.07213      .   S
    Zr5    O177      2.23066  1_455   S
    C178   O179      1.02905      .   S
    Zr5    O179      2.08626      .   S
    C178   O180      0.83484  1_455   S
    Zr16   O180      1.83947  1_455   S
    C178   O181      1.34605  1_455   S
    N27    O181      2.89011      .   S
    Zr0    O182      1.70104      .   S
    C172   O182      0.63711      .   S
    Zr12   O183      1.70104      .   S
    C116   O183      0.63709      .   S
    C143   O184      0.63711      .   S
    Zr2    O184      1.70105      .   S
    C104   O185      0.63723      .   S
    Zr8    O185      1.70123      .   S
    Zr9    O186      1.70123      .   S
    C107   O186      0.63723      .   S
    C126   O187      0.63710      .   S
    Zr4    O187      1.70108      .   S
    Zr7    O188      1.70103      .   S
    C132   O188      0.63708      .   S
    C110   O189      0.63723      .   S
    Zr10   O189      1.70123      .   S
    Zr15   O190      1.70109      .   S
    C90    O190      0.63710      .   S
    Zr5    O191      1.70107      .   S
    C129   O191      0.63710      .   S
    C119   O192      0.63710      .   S
    Zr14   O192      1.70108      .   S
    C169   O193      0.63670      .   S
    Zr1    O193      1.69820      .   S
    Zr13   O194      1.70105      .   S
    C93    O194      0.63709      .   S
    Zr11   O195      1.70114      .   S
    C83    O195      0.63713      .   S
    C146   O196      0.63708      .   S
    Zr6    O196      1.70103      .   S
    Zr3    O197      1.70104      .   S
    C175   O197      0.63711      .   S
