# CIF file generated by openbabel 2.4.90, see http://openbabel.sf.net
data_I
_chemical_name_common ''
_cell_length_a 20.935
_cell_length_b 20.946
_cell_length_c 16.318
_cell_angle_alpha 80.949
_cell_angle_beta 81.04
_cell_angle_gamma 49.407
_space_group_name_H-M_alt 'P 1'
_space_group_name_Hall 'P 1'
loop_
    _symmetry_equiv_pos_as_xyz
    x,y,z
loop_
    _atom_site_label
    _atom_site_type_symbol
    _atom_site_fract_x
    _atom_site_fract_y
    _atom_site_fract_z
    _atom_site_occupancy
    Zr0     Zr   0.35686   0.39637   0.21026   1.000
    Zr1     Zr   0.35686   0.89636   0.21026   1.000
    Zr2     Zr   0.85685   0.39637   0.21026   1.000
    Zr3     Zr   0.85686   0.89636   0.21026   1.000
    Zr4     Zr   0.10400   0.14367   0.28961   1.000
    Zr5     Zr   0.10400   0.64366   0.28961   1.000
    Zr6     Zr   0.60400   0.14366   0.28961   1.000
    Zr7     Zr   0.60400   0.64365   0.28961   1.000
    Zr8     Zr   0.14310   0.10364   0.78978   1.000
    Zr9     Zr   0.14310   0.60363   0.78978   1.000
    Zr10    Zr   0.64310   0.10364   0.78978   1.000
    Zr11    Zr   0.64310   0.60363   0.78978   1.000
    Zr12    Zr   0.39596   0.35635   0.71042   1.000
    Zr13    Zr   0.39597   0.85634   0.71042   1.000
    Zr14    Zr   0.89597   0.35634   0.71042   1.000
    Zr15    Zr   0.89597   0.85633   0.71042   1.000
    Zr16    Zr   0.00813   0.49228   0.25003   1.000
    Zr17    Zr   0.00813   0.99227   0.25003   1.000
    Zr18    Zr   0.50813   0.49228   0.25004   1.000
    Zr19    Zr   0.50813   0.99227   0.25003   1.000
    Zr20    Zr   0.49183   0.00772   0.75000   1.000
    Zr21    Zr   0.49184   0.50771   0.70000   1.000
    Zr22    Zr   0.99183   0.00772   0.75000   1.000
    Zr23    Zr   0.99183   0.50771   0.75000   1.000
    N24     N    0.06844   0.80504   0.42314   1.000
    O25     O    0.08658   0.74729   0.36865   1.000
    O26     O    0.04854   0.86872   0.35543   1.000
    N27     N    0.93153   0.69495   0.57689   1.000
    O28     O    0.91338   0.75270   0.63138   1.000
    O29     O    0.95143   0.63126   0.64460   1.000
    N30     N    0.56843   0.30505   0.42310   1.000
    O31     O    0.54853   0.36873   0.35541   1.000
    O32     O    0.58658   0.24730   0.36863   1.000
    N33     N    0.56843   0.80504   0.42310   1.000
    O34     O    0.54853   0.86872   0.35541   1.000
    O35     O    0.58658   0.74729   0.36863   1.000
    N36     N    0.69506   0.43174   0.07626   1.000
    O37     O    0.63145   0.45186   0.14427   1.000
    O38     O    0.75294   0.41374   0.13101   1.000
    N39     N    0.06844   0.30505   0.42314   1.000
    O40     O    0.08658   0.24730   0.36865   1.000
    O41     O    0.04853   0.36873   0.35543   1.000
    N42     N    0.80489   0.06826   0.92319   1.000
    O43     O    0.74701   0.08626   0.86874   1.000
    O44     O    0.86850   0.04815   0.85547   1.000
    N45     N    0.19507   0.43174   0.07651   1.000
    O46     O    0.13146   0.45186   0.14440   1.000
    O47     O    0.25295   0.41374   0.13113   1.000
    N48     N    0.69506   0.93173   0.07651   1.000
    O49     O    0.63145   0.95185   0.14440   1.000
    O50     O    0.75295   0.91373   0.13113   1.000
    N51     N    0.19507   0.93173   0.07651   1.000
    O52     O    0.13146   0.95185   0.14440   1.000
    O53     O    0.25295   0.91373   0.13113   1.000
    N54     N    0.30490   0.06827   0.92319   1.000
    O55     O    0.24701   0.08627   0.86874   1.000
    O56     O    0.36851   0.04815   0.85547   1.000
    N57     N    0.43153   0.69495   0.57689   1.000
    O58     O    0.41339   0.75270   0.63138   1.000
    O59     O    0.45143   0.63126   0.63209   1.000
    N60     N    0.43153   0.19496   0.57688   1.000
    O61     O    0.41338   0.25271   0.63138   1.000
    O62     O    0.45143   0.13127   0.64460   1.000
    N63     N    0.30490   0.56826   0.92319   1.000
    O64     O    0.24702   0.58626   0.86874   1.000
    N65     N    0.80490   0.56826   0.92319   1.000
    O66     O    0.74701   0.58626   0.86874   1.000
    O67     O    0.86851   0.54814   0.85547   1.000
    N68     N    0.93153   0.19496   0.57689   1.000
    O69     O    0.91338   0.25271   0.63138   1.000
    O70     O    0.95143   0.13127   0.64460   1.000
    C71     C    0.99597   0.91893   0.64932   1.000
    O72     O    0.02009   0.87983   0.57920   1.000
    O73     O    0.00842   0.94132   0.67375   1.000
    O74     O    0.95523   0.90717   0.66984   1.000
    C75     C    0.49597   0.41895   0.64932   1.000
    O76     O    0.52009   0.37984   0.57919   1.000
    O77     O    0.50842   0.44133   0.66125   1.000
    O78     O    0.45522   0.40718   0.66984   1.000
    C79     C    0.49597   0.91893   0.64932   1.000
    O80     O    0.52009   0.87983   0.57919   1.000
    O81     O    0.50842   0.94132   0.67375   1.000
    O82     O    0.45523   0.90717   0.66984   1.000
    C83     C    0.59729   0.69814   0.67151   1.000
    O84     O    0.53423   0.75012   0.69229   1.000
    O85     O    0.59601   0.68695   0.71213   1.000
    O86     O    0.62279   0.65841   0.69576   1.000
    O87     O    0.58650   0.73481   0.59347   1.000
    C88     C    0.08084   0.50339   0.85063   1.000
    O89     O    0.05846   0.49095   0.82622   1.000
    O90     O    0.09245   0.54423   0.83016   1.000
    O91     O    0.12005   0.47949   0.92069   1.000
    C92     C    0.80169   0.90197   0.82859   1.000
    O93     O    0.81282   0.90338   0.78799   1.000
    O94     O    0.74961   0.96521   0.80782   1.000
    O95     O    0.76511   0.91300   0.90650   1.000
    O96     O    0.84135   0.87641   0.80437   1.000
    C97     C    0.30169   0.90197   0.82859   1.000
    O98     O    0.31283   0.90338   0.78799   1.000
    O99     O    0.24961   0.96521   0.80782   1.000
    O100    O    0.26512   0.91300   0.90650   1.000
    O101    O    0.34136   0.87642   0.80437   1.000
    C102    C    0.58084   0.00338   0.85064   1.000
    O103    O    0.55846   0.99095   0.82622   1.000
    O104    O    0.59244   0.04423   0.83017   1.000
    O105    O    0.62005   0.97948   0.92069   1.000
    C106    C    0.99596   0.41894   0.64932   1.000
    O107    O    0.95522   0.40718   0.66984   1.000
    O108    O    0.00842   0.44133   0.67375   1.000
    O109    O    0.02009   0.37984   0.57920   1.000
    C110    C    0.09729   0.19815   0.67149   1.000
    O111    O    0.03423   0.25013   0.69228   1.000
    O112    O    0.09602   0.18696   0.71212   1.000
    O113    O    0.12279   0.15842   0.69575   1.000
    O114    O    0.08651   0.23482   0.59346   1.000
    C115    C    0.09729   0.69814   0.67149   1.000
    O116    O    0.08651   0.73481   0.59346   1.000
    O117    O    0.03423   0.75012   0.69228   1.000
    O118    O    0.09602   0.68695   0.71212   1.000
    O119    O    0.12279   0.65841   0.69575   1.000
    C120    C    0.59728   0.19815   0.67149   1.000
    O121    O    0.53423   0.25013   0.69228   1.000
    O122    O    0.59601   0.18696   0.71212   1.000
    O123    O    0.58650   0.23482   0.59345   1.000
    O124    O    0.62278   0.15842   0.69575   1.000
    C125    C    0.58084   0.50339   0.85064   1.000
    O126    O    0.59245   0.54422   0.83017   1.000
    O127    O    0.62005   0.47949   0.92063   1.000
    C128    C    0.30169   0.40198   0.82859   1.000
    O129    O    0.31283   0.40339   0.78799   1.000
    O130    O    0.24961   0.46521   0.80782   1.000
    O131    O    0.34135   0.37643   0.80437   1.000
    O132    O    0.26512   0.41301   0.90650   1.000
    C133    C    0.80169   0.40198   0.82859   1.000
    O134    O    0.76511   0.41300   0.90644   1.000
    O135    O    0.81282   0.40339   0.78799   1.000
    O136    O    0.74960   0.46521   0.80782   1.000
    O137    O    0.84135   0.37642   0.80437   1.000
    C138    C    0.08084   0.00339   0.85064   1.000
    O139    O    0.12005   0.97949   0.92069   1.000
    O140    O    0.09245   0.04423   0.83016   1.000
    O141    O    0.05846   0.99095   0.82622   1.000
    C142    C    0.19827   0.09803   0.17144   1.000
    O143    O    0.23485   0.08700   0.09345   1.000
    O144    O    0.15861   0.12359   0.19565   1.000
    O145    O    0.25035   0.03479   0.19221   1.000
    O146    O    0.18714   0.09662   0.21204   1.000
    C147    C    0.19828   0.59802   0.17144   1.000
    O148    O    0.23485   0.58699   0.09345   1.000
    O149    O    0.25036   0.53478   0.19221   1.000
    O150    O    0.18714   0.59661   0.21204   1.000
    O151    O    0.15861   0.62358   0.19565   1.000
    C152    C    0.69827   0.59802   0.17144   1.000
    O153    O    0.65861   0.62358   0.19565   1.000
    O154    O    0.73484   0.58699   0.09345   1.000
    O155    O    0.75035   0.53478   0.19221   1.000
    O156    O    0.68714   0.59661   0.21204   1.000
    C157    C    0.00400   0.08106   0.35071   1.000
    O158    O    0.04474   0.09283   0.33019   1.000
    O159    O    0.97987   0.12016   0.42083   1.000
    O160    O    0.99154   0.05868   0.32628   1.000
    C161    C    0.91912   0.49660   0.14939   1.000
    O162    O    0.87991   0.52050   0.07926   1.000
    O163    O    0.90751   0.45577   0.16986   1.000
    O164    O    0.94150   0.50904   0.17381   1.000
    C165    C    0.90267   0.30186   0.32853   1.000
    O166    O    0.91345   0.26519   0.40656   1.000
    O167    O    0.96572   0.24988   0.30774   1.000
    O168    O    0.90394   0.31305   0.28790   1.000
    O169    O    0.87716   0.34159   0.30428   1.000
    C170    C    0.69827   0.09803   0.17144   1.000
    O171    O    0.73484   0.08700   0.09345   1.000
    O172    O    0.65861   0.12358   0.19565   1.000
    O173    O    0.75035   0.03479   0.19221   1.000
    O174    O    0.68714   0.09662   0.21204   1.000
    C175    C    0.50400   0.58105   0.35070   1.000
    O176    O    0.54474   0.59282   0.33018   1.000
    O177    O    0.47988   0.62015   0.42083   1.000
    O178    O    0.49154   0.55867   0.32628   1.000
    C179    C    0.91912   0.99660   0.14939   1.000
    O180    O    0.90751   0.95577   0.16986   1.000
    O181    O    0.87991   0.02051   0.07926   1.000
    O182    O    0.94150   0.00904   0.17381   1.000
    C183    C    0.41912   0.49661   0.14939   1.000
    O184    O    0.44150   0.50905   0.17381   1.000
    O185    O    0.40752   0.45577   0.16986   1.000
    O186    O    0.37991   0.52051   0.07926   1.000
    C187    C    0.50400   0.08106   0.35070   1.000
    O188    O    0.47987   0.12016   0.42083   1.000
    O189    O    0.49154   0.05868   0.32627   1.000
    O190    O    0.54474   0.09283   0.33018   1.000
    C191    C    0.41912   0.99661   0.14939   1.000
    O192    O    0.44150   0.00905   0.17381   1.000
    O193    O    0.37991   0.02051   0.07926   1.000
    O194    O    0.40752   0.95577   0.16986   1.000
    C195    C    0.40267   0.80185   0.32826   1.000
    O196    O    0.37717   0.84158   0.30395   1.000
    O197    O    0.46573   0.74987   0.30761   1.000
    O198    O    0.40395   0.81305   0.28777   1.000
    O199    O    0.41346   0.76518   0.40642   1.000
    C200    C    0.40267   0.30186   0.32853   1.000
    O201    O    0.37717   0.34159   0.30428   1.000
    O202    O    0.46573   0.24988   0.30774   1.000
    O203    O    0.40394   0.31306   0.28790   1.000
    O204    O    0.41345   0.26519   0.40656   1.000
    C205    C    0.90267   0.80185   0.32853   1.000
    O206    O    0.91345   0.76518   0.40656   1.000
    O207    O    0.96573   0.74987   0.30774   1.000
    O208    O    0.90394   0.81305   0.28790   1.000
    O209    O    0.87716   0.84158   0.30428   1.000
    C210    C    0.00400   0.58105   0.35070   1.000
    O211    O    0.04474   0.59282   0.33018   1.000
    O212    O    0.99154   0.55867   0.32627   1.000
    O213    O    0.97988   0.62015   0.42083   1.000
loop_
    _geom_bond_atom_site_label_1
    _geom_bond_atom_site_label_2
    _geom_bond_distance
    _geom_bond_site_symmetry_2
    _ccdc_geom_bond_type
    N24    O25       1.42594      .   S
    Zr5    O25       2.49254      .   S
    N24    O26       1.45953      .   S
    Zr17   O26       2.56406      .   S
    N27    O28       1.42595      .   S
    Zr15   O28       2.49263      .   S
    N27    O29       1.45952      .   S
    Zr23   O29       2.56412      .   S
    N30    O31       1.45924      .   S
    Zr18   O31       2.56388      .   S
    N30    O32       1.42571      .   S
    Zr6    O32       2.49233      .   S
    N33    O34       1.45931      .   S
    Zr19   O34       2.56398      .   S
    N33    O35       1.42575      .   S
    Zr7    O35       2.49238      .   S
    N36    O37       1.46261      .   S
    Zr18   O37       2.56675      .   S
    N36    O38       1.43016      .   S
    Zr2    O38       2.49706      .   S
    N39    O40       1.42594      .   S
    Zr4    O40       2.49255      .   S
    N39    O41       1.45953      .   S
    Zr16   O41       2.56407      .   S
    N42    O43       1.42676      .   S
    Zr10   O43       2.49404      .   S
    N42    O44       1.45947      .   S
    Zr22   O44       2.56404      .   S
    N45    O46       1.46125      .   S
    Zr16   O46       2.56556      .   S
    N45    O47       1.42872      .   S
    Zr0    O47       2.49580      .   S
    N48    O49       1.46125      .   S
    Zr19   O49       2.56555      .   S
    N48    O50       1.42871      .   S
    Zr3    O50       2.49577      .   S
    N51    O52       1.46126      .   S
    Zr17   O52       2.56557      .   S
    N51    O53       1.42871      .   S
    Zr1    O53       2.49579      .   S
    N54    O55       1.42676      .   S
    Zr8    O55       2.49401      .   S
    N54    O56       1.45946      .   S
    Zr20   O56       2.56402      .   S
    N57    O58       1.42596      .   S
    Zr13   O58       2.49264      .   S
    N57    O59       1.33422      .   S
    Zr21   O59       2.27629      .   S
    N60    O61       1.42598      .   S
    Zr12   O61       2.49266      .   S
    N60    O62       1.45956      .   S
    Zr20   O62       2.56416      .   S
    N63    O64       1.42676      .   S
    Zr9    O64       2.49403      .   S
    N65    O66       1.42677      .   S
    Zr11   O66       2.49405      .   S
    N65    O67       1.45947      .   S
    Zr23   O67       2.56403      .   S
    N68    O69       1.42595      .   S
    Zr14   O69       2.49262      .   S
    N68    O70       1.45952      .   S
    Zr22   O70       2.56411      .   S
    C71    O72       1.34602  1_655   S
    N24    O72       2.89012      .   S
    C71    O73       0.83492  1_655   S
    Zr22   O73       1.83968  1_645   S
    C71    O74       1.02905      .   S
    Zr15   O74       2.08628      .   S
    C75    O76       1.34617      .   S
    N30    O76       2.89056      .   S
    C75    O77       0.72751      .   S
    Zr21   O77       1.42612      .   S
    C75    O78       1.02907      .   S
    Zr12   O78       2.08630      .   S
    C79    O80       1.34614      .   S
    N33    O80       2.89048      .   S
    C79    O81       0.83492      .   S
    Zr20   O81       1.83967  1_545   S
    C79    O82       1.02906      .   S
    Zr13   O82       2.08629      .   S
    C83    O84       1.07208      .   S
    Zr13   O84       2.23059      .   S
    C83    O85       0.66996      .   S
    Zr11   O85       1.75424      .   S
    C83    O86       0.71990      .   S
    Zr11   O86       1.69281      .   S
    C83    O87       1.34862      .   S
    N33    O87       2.88999      .   S
    C88    O89       0.83418      .   S
    Zr23   O89       1.83881  1_655   S
    C88    O90       1.02836      .   S
    Zr9    O90       2.08531      .   S
    C88    O91       1.34490      .   S
    N45    O91       2.88641  1_554   S
    C92    O93       0.67003      .   S
    Zr15   O93       1.75411      .   S
    C92    O94       1.07357      .   S
    Zr10   O94       2.23342  1_545   S
    C92    O95       1.34718      .   S
    N48    O95       2.88567  1_554   S
    C92    O96       0.71980      .   S
    Zr15   O96       1.69287      .   S
    C97    O98       0.67003      .   S
    Zr13   O98       1.75405      .   S
    C97    O99       1.07358      .   S
    Zr8    O99       2.23343  1_545   S
    C97    O100      1.34718      .   S
    N51    O100      2.88567  1_554   S
    C97    O101      0.71978      .   S
    Zr13   O101      1.69283      .   S
    C102   O103      0.83412  1_545   S
    Zr20   O103      1.83877  1_545   S
    C102   O104      1.02848      .   S
    Zr10   O104      2.08542      .   S
    C102   O105      1.34485  1_545   S
    N48    O105      2.88635  1_554   S
    C106   O107      1.02905      .   S
    Zr14   O107      2.08629      .   S
    C106   O108      0.83485  1_655   S
    Zr23   O108      1.83947  1_655   S
    C106   O109      1.34602  1_655   S
    N39    O109      2.89012      .   S
    C110   O111      1.07213      .   S
    Zr14   O111      2.23061  1_655   S
    C110   O112      0.67009      .   S
    Zr8    O112      1.75431      .   S
    C110   O113      0.71996      .   S
    Zr8    O113      1.69291      .   S
    C110   O114      1.34847      .   S
    N39    O114      2.88943      .   S
    C115   O116      1.34847      .   S
    N24    O116      2.88942      .   S
    C115   O117      1.07213      .   S
    Zr15   O117      2.23061  1_655   S
    C115   O118      0.67009      .   S
    Zr9    O118      1.75432      .   S
    C115   O119      0.71996      .   S
    Zr9    O119      1.69292      .   S
    C120   O121      1.07212      .   S
    Zr12   O121      2.23062      .   S
    C120   O122      0.67008      .   S
    Zr10   O122      1.75433      .   S
    C120   O123      1.34861      .   S
    N30    O123      2.88985      .   S
    C120   O124      0.71996      .   S
    Zr10   O124      1.69292      .   S
    C125   O126      1.02835      .   S
    Zr11   O126      2.08532      .   S
    C125   O127      1.34396      .   S
    N36    O127      2.88360  1_554   S
    C128   O129      0.67003      .   S
    Zr12   O129      1.75404      .   S
    C128   O130      1.07351      .   S
    Zr9    O130      2.23322      .   S
    C128   O131      0.71978      .   S
    Zr12   O131      1.69283      .   S
    C128   O132      1.34718      .   S
    N45    O132      2.88567  1_554   S
    C133   O134      1.34629      .   S
    N36    O134      2.88293  1_554   S
    C133   O135      0.67003      .   S
    Zr14   O135      1.75410      .   S
    C133   O136      1.07352      .   S
    Zr11   O136      2.23321      .   S
    C133   O137      0.71980      .   S
    Zr14   O137      1.69286      .   S
    C138   O139      1.34485  1_545   S
    N51    O139      2.88636  1_554   S
    C138   O140      1.02849      .   S
    Zr8    O140      2.08543      .   S
    C138   O141      0.83413  1_545   S
    Zr22   O141      1.83884  1_645   S
    C142   O143      1.34837      .   S
    N54    O143      2.88933  1_556   S
    C142   O144      0.71980      .   S
    Zr4    O144      1.69285      .   S
    C142   O145      1.07359      .   S
    Zr1    O145      2.23343  1_565   S
    C142   O146      0.67003      .   S
    Zr4    O146      1.75409      .   S
    C147   O148      1.34837      .   S
    N63    O148      2.88934  1_556   S
    C147   O149      1.07353      .   S
    Zr0    O149      2.23322      .   S
    C147   O150      0.67003      .   S
    Zr5    O150      1.75408      .   S
    C147   O151      0.71980      .   S
    Zr5    O151      1.69285      .   S
    C152   O153      0.71977      .   S
    Zr7    O153      1.69282      .   S
    C152   O154      1.34837      .   S
    N65    O154      2.88934  1_556   S
    C152   O155      1.07353      .   S
    Zr2    O155      2.23322      .   S
    C152   O156      0.67003      .   S
    Zr7    O156      1.75403      .   S
    C157   O158      1.02905      .   S
    Zr4    O158      2.08628      .   S
    C157   O159      1.34600  1_455   S
    N68    O159      2.89006      .   S
    C157   O160      0.83495  1_455   S
    Zr17   O160      1.83972  1_465   S
    C161   O162      1.34604      .   S
    N65    O162      2.89005  1_556   S
    C161   O163      1.02837      .   S
    Zr2    O163      2.08534      .   S
    C161   O164      0.83419      .   S
    Zr16   O164      1.83893  1_455   S
    C165   O166      1.34849      .   S
    N68    O166      2.88956      .   S
    C165   O167      1.07213      .   S
    Zr4    O167      2.23066  1_455   S
    C165   O168      0.66996      .   S
    Zr2    O168      1.75414      .   S
    C165   O169      0.71987      .   S
    Zr2    O169      1.69273      .   S
    C170   O171      1.34837      .   S
    N42    O171      2.88934  1_556   S
    C170   O172      0.71977      .   S
    Zr6    O172      1.69282      .   S
    C170   O173      1.07359      .   S
    Zr3    O173      2.23344  1_565   S
    C170   O174      0.67002      .   S
    Zr6    O174      1.75403      .   S
    C175   O176      1.02907      .   S
    Zr7    O176      2.08627      .   S
    C175   O177      1.34604      .   S
    N57    O177      2.89009      .   S
    C175   O178      0.83482      .   S
    Zr18   O178      1.83938      .   S
    C179   O180      1.02850      .   S
    Zr3    O180      2.08545      .   S
    C179   O181      1.34603  1_565   S
    N42    O181      2.89005  1_556   S
    C179   O182      0.83416  1_565   S
    Zr17   O182      1.83885  1_465   S
    C183   O184      0.83417      .   S
    Zr18   O184      1.83896      .   S
    C183   O185      1.02837      .   S
    Zr0    O185      2.08535      .   S
    C183   O186      1.34603      .   S
    N63    O186      2.89004  1_556   S
    C187   O188      1.34603      .   S
    N60    O188      2.89005      .   S
    C187   O189      0.83491      .   S
    Zr19   O189      1.83968  1_565   S
    C187   O190      1.02907      .   S
    Zr6    O190      2.08627      .   S
    C191   O192      0.83413  1_565   S
    Zr19   O192      1.83880  1_565   S
    C191   O193      1.34603  1_565   S
    N54    O193      2.89004  1_556   S
    C191   O194      1.02849      .   S
    Zr1    O194      2.08546      .   S
    C195   O196      0.72039      .   S
    Zr1    O196      1.68821      .   S
    C195   O197      1.07151      .   S
    Zr7    O197      2.23048      .   S
    C195   O198      0.66796      .   S
    Zr1    O198      1.75273      .   S
    C195   O199      1.35038      .   S
    N57    O199      2.89148      .   S
    C200   O201      0.71987      .   S
    Zr0    O201      1.69272      .   S
    C200   O202      1.07212      .   S
    Zr6    O202      2.23067      .   S
    C200   O203      0.66995      .   S
    Zr0    O203      1.75414      .   S
    C200   O204      1.34847      .   S
    N60    O204      2.88950      .   S
    C205   O206      1.34849      .   S
    N27    O206      2.88956      .   S
    C205   O207      1.07213      .   S
    Zr5    O207      2.23066  1_455   S
    C205   O208      0.66996      .   S
    Zr3    O208      1.75413      .   S
    C205   O209      0.71987      .   S
    Zr3    O209      1.69272      .   S
    C210   O211      1.02905      .   S
    Zr5    O211      2.08626      .   S
    C210   O212      0.83484  1_455   S
    Zr16   O212      1.83947  1_455   S
    C210   O213      1.34605  1_455   S
    N27    O213      2.89011      .   S
