# CIF file generated by openbabel 2.4.90, see http://openbabel.sf.net
data_I
_chemical_name_common ''
_cell_length_a 17.315
_cell_length_b 19.3
_cell_length_c 22.368
_cell_angle_alpha 90
_cell_angle_beta 90.002
_cell_angle_gamma 94.969
_space_group_name_H-M_alt 'P 1'
_space_group_name_Hall 'P 1'
loop_
    _symmetry_equiv_pos_as_xyz
    x,y,z
loop_
    _atom_site_label
    _atom_site_type_symbol
    _atom_site_fract_x
    _atom_site_fract_y
    _atom_site_fract_z
    _atom_site_occupancy
    N0      N    0.31822   0.72955   0.70669   1.000
    N1      N    0.68178   0.77040   0.20670   1.000
    N2      N    0.18177   0.77039   0.20670   1.000
    N3      N    0.54550   0.21258   0.17034   1.000
    N4      N    0.95452   0.28740   0.67044   1.000
    N5      N    0.81822   0.72955   0.70669   1.000
    N6      N    0.18179   0.27041   0.29328   1.000
    N7      N    0.68179   0.27042   0.29328   1.000
    N8      N    0.81823   0.22957   0.79328   1.000
    N9      N    0.31823   0.22957   0.79326   1.000
    N10     N    0.45450   0.78738   0.82953   1.000
    N11     N    0.95450   0.78738   0.82953   1.000
    N12     N    0.04550   0.21258   0.17033   1.000
    N13     N    0.45452   0.28740   0.67044   1.000
    N14     N    0.04548   0.71256   0.32954   1.000
    N15     N    0.54548   0.71256   0.32954   1.000
    Zr16    Zr   0.34496   0.01207   0.44376   1.000
    O17     O    0.28784   0.08227   0.40791   1.000
    O18     O    0.37760   0.09206   0.50860   1.000
    O19     O    0.29572   0.94192   0.37635   1.000
    O20     O    0.34480   0.93020   0.51620   1.000
    Zr21    Zr   0.84495   0.51206   0.05623   1.000
    O22     O    0.79572   0.44192   0.12364   1.000
    O23     O    0.84480   0.43021   0.98379   1.000
    O24     O    0.78783   0.58226   0.09208   1.000
    O25     O    0.87759   0.59205   0.99138   1.000
    Zr26    Zr   0.34495   0.51206   0.05623   1.000
    O27     O    0.34480   0.43021   0.98378   1.000
    O28     O    0.37759   0.59204   0.99138   1.000
    O29     O    0.28783   0.58225   0.09208   1.000
    O30     O    0.29572   0.44192   0.12364   1.000
    Zr31    Zr   0.65504   0.98789   0.55623   1.000
    O32     O    0.65521   0.06976   0.48379   1.000
    O33     O    0.70428   0.05805   0.62364   1.000
    O34     O    0.62240   0.90791   0.49139   1.000
    O35     O    0.71216   0.91770   0.59208   1.000
    Zr36    Zr   0.15504   0.98789   0.55623   1.000
    O37     O    0.20428   0.05805   0.62363   1.000
    O38     O    0.15521   0.06976   0.48379   1.000
    O39     O    0.21216   0.91769   0.59208   1.000
    O40     O    0.12240   0.90791   0.49139   1.000
    Zr41    Zr   0.15505   0.48790   0.94376   1.000
    O42     O    0.21217   0.41771   0.90790   1.000
    O43     O    0.20428   0.55805   0.87635   1.000
    O44     O    0.15521   0.56976   0.01620   1.000
    O45     O    0.12241   0.40792   0.00857   1.000
    Zr46    Zr   0.84496   0.01207   0.44376   1.000
    O47     O    0.78784   0.08227   0.40791   1.000
    O48     O    0.87760   0.09206   0.50860   1.000
    O49     O    0.84480   0.93020   0.51620   1.000
    O50     O    0.79572   0.94192   0.37634   1.000
    Zr51    Zr   0.65505   0.48791   0.94376   1.000
    O52     O    0.71217   0.41771   0.90790   1.000
    O53     O    0.62241   0.40792   0.00858   1.000
    O54     O    0.70428   0.55805   0.87635   1.000
    O55     O    0.65521   0.56976   0.01620   1.000
    O56     O    0.09659   0.43253   0.86574   1.000
    O57     O    0.59659   0.43253   0.86573   1.000
    O58     O    0.40342   0.06745   0.36571   1.000
    O59     O    0.40341   0.56744   0.13425   1.000
    O60     O    0.09658   0.93251   0.63424   1.000
    O61     O    0.59658   0.93252   0.63424   1.000
    O62     O    0.90341   0.56744   0.13425   1.000
    O63     O    0.90342   0.06745   0.36571   1.000
loop_
    _geom_bond_atom_site_label_1
    _geom_bond_atom_site_label_2
    _geom_bond_distance
    _geom_bond_site_symmetry_2
    _ccdc_geom_bond_type
    Zr16   O17       1.92062      .   S
    N6     O17       4.92808      .   S
    Zr16   O18       2.15747      .   S
    N13    O18       5.31248      .   S
    Zr16   O19       2.15261  1_545   S
    N2     O19       5.30274      .   S
    Zr16   O20       2.26295  1_545   S
    N0     O20       5.74939      .   S
    Zr21   O22       2.15246      .   S
    N7     O22       5.30246      .   S
    Zr21   O23       2.26293  1_554   S
    N8     O23       5.74947      .   S
    Zr21   O24       1.92062      .   S
    N1     O24       4.92805      .   S
    Zr21   O25       2.15758  1_554   S
    N11    O25       5.31268      .   S
    Zr26   O27       2.26298  1_554   S
    N9     O27       5.74965      .   S
    Zr26   O28       2.15759  1_554   S
    N10    O28       5.31269      .   S
    Zr26   O29       1.92060      .   S
    N2     O29       4.92802      .   S
    Zr26   O30       2.15246      .   S
    N6     O30       5.30247      .   S
    Zr31   O32       2.26305  1_565   S
    N7     O32       5.74965      .   S
    Zr31   O33       2.15256  1_565   S
    N8     O33       5.30259      .   S
    Zr31   O34       2.15752      .   S
    N15    O34       5.31253      .   S
    Zr31   O35       1.92060      .   S
    N5     O35       4.92795      .   S
    Zr36   O37       2.15250  1_565   S
    N9     O37       5.30241      .   S
    Zr36   O38       2.26304  1_565   S
    N6     O38       5.74962      .   S
    Zr36   O39       1.92060      .   S
    N0     O39       4.92793      .   S
    Zr36   O40       2.15752      .   S
    N14    O40       5.31258      .   S
    Zr41   O42       1.92071      .   S
    N9     O42       4.92829      .   S
    Zr41   O43       2.15254      .   S
    N0     O43       5.30269      .   S
    Zr41   O44       2.26284  1_556   S
    N2     O44       5.74928      .   S
    Zr41   O45       2.15708  1_556   S
    N12    O45       5.31115      .   S
    Zr46   O47       1.92064      .   S
    N7     O47       4.92810      .   S
    Zr46   O48       2.15748      .   S
    N4     O48       5.31249      .   S
    Zr46   O49       2.26297  1_545   S
    N5     O49       5.74943      .   S
    Zr46   O50       2.15278  1_545   S
    N1     O50       5.30255      .   S
    Zr51   O52       1.92069      .   S
    N8     O52       4.92818      .   S
    Zr51   O53       2.15710  1_556   S
    N3     O53       5.31123      .   S
    Zr51   O54       2.15253      .   S
    N5     O54       5.30267      .   S
    Zr51   O55       2.26285  1_556   S
    N1     O55       5.74931      .   S
    Zr41   O56       2.24166      .   S
    N4     O56       5.63785  1_655   S
    N13    O57       5.63785      .   S
    Zr51   O57       2.24172      .   S
    Zr16   O58       2.24220      .   S
    N3     O58       5.63946      .   S
    Zr26   O59       2.24163      .   S
    N15    O59       5.63779      .   S
    Zr36   O60       2.24153      .   S
    N11    O60       5.63787  1_655   S
    Zr31   O61       2.24154      .   S
    N10    O61       5.63788      .   S
    Zr21   O62       2.24160      .   S
    N14    O62       5.63773  1_455   S
    N12    O63       5.63947  1_455   S
    Zr46   O63       2.24226      .   S
