# CIF file generated by openbabel 2.4.90, see http://openbabel.sf.net
data_I
_chemical_name_common ''
_cell_length_a 10.816
_cell_length_b 15.94
_cell_length_c 18.497
_cell_angle_alpha 114.393
_cell_angle_beta 107.119
_cell_angle_gamma 93.922
_space_group_name_H-M_alt 'P 1'
_space_group_name_Hall 'P 1'
loop_
    _symmetry_equiv_pos_as_xyz
    x,y,z
loop_
    _atom_site_label
    _atom_site_type_symbol
    _atom_site_fract_x
    _atom_site_fract_y
    _atom_site_fract_z
    _atom_site_occupancy
    N0      N    0.52860   0.76078   0.15072   1.000
    N1      N    0.47137   0.23892   0.84907   1.000
    Zr2     Zr   0.99891   0.50001   0.50006   1.000
    O3      O    0.15990   0.60624   0.73274   1.000
    O4      O    0.81381   0.58360   0.74070   1.000
    O5      O    0.81238   0.58147   0.40143   1.000
    O6      O    0.18509   0.41634   0.25934   1.000
    O7      O    0.18652   0.41846   0.59859   1.000
    O8      O    0.82137   0.25189   0.40669   1.000
    O9      O    0.83901   0.39369   0.26729   1.000
    O10     O    0.17753   0.74806   0.59334   1.000
loop_
    _geom_bond_atom_site_label_1
    _geom_bond_atom_site_label_2
    _geom_bond_distance
    _geom_bond_site_symmetry_2
    _ccdc_geom_bond_type
    Zr2    O3        3.68629  1_655   S
    N0     O3        6.82040  1_554   S
    Zr2    O4        5.12919      .   S
    N0     O4        8.50202  1_554   S
    Zr2    O5        3.03853      .   S
    N0     O5        6.54719      .   S
    Zr2    O6        5.13804  1_655   S
    N1     O6        8.51354  1_556   S
    Zr2    O7        3.04456  1_655   S
    N1     O7        6.55002      .   S
    Zr2    O8        3.69851      .   S
    N0     O8        7.13396  1_565   S
    Zr2    O9        3.68637      .   S
    N1     O9        6.82094  1_556   S
    Zr2    O10       3.70142  1_655   S
    N1     O10       7.13263  1_545   S
