# CIF file generated by openbabel 2.4.90, see http://openbabel.sf.net
data_I
_chemical_name_common ''
_cell_length_a 14.357
_cell_length_b 15.243
_cell_length_c 16.405
_cell_angle_alpha 89.997
_cell_angle_beta 90.004
_cell_angle_gamma 97.449
_space_group_name_H-M_alt 'P 1'
_space_group_name_Hall 'P 1'
loop_
    _symmetry_equiv_pos_as_xyz
    x,y,z
loop_
    _atom_site_label
    _atom_site_type_symbol
    _atom_site_fract_x
    _atom_site_fract_y
    _atom_site_fract_z
    _atom_site_occupancy
    Zn0     Zn   0.59772   0.66241   0.49300   1.000
    Zn1     Zn   0.09349   0.47796   0.37500   1.000
    Zn2     Zn   0.59355   0.47794   0.37499   1.000
    Zn3     Zn   0.15245   0.83769   0.99328   1.000
    Zn4     Zn   0.65245   0.83763   0.99332   1.000
    Zn5     Zn   0.15664   0.02215   0.87503   1.000
    Zn6     Zn   0.65669   0.02212   0.87502   1.000
    Zn7     Zn   0.40229   0.33759   0.50659   1.000
    Zn8     Zn   0.90220   0.33758   0.50664   1.000
    Zn9     Zn   0.40645   0.52205   0.62500   1.000
    Zn10    Zn   0.90652   0.52204   0.62499   1.000
    Zn11    Zn   0.34756   0.16238   0.00666   1.000
    Zn12    Zn   0.84756   0.16231   0.00671   1.000
    Zn13    Zn   0.34332   0.97788   0.12496   1.000
    Zn14    Zn   0.84337   0.97784   0.12495   1.000
    Zn15    Zn   0.24998   0.50000   0.50000   1.000
    Zn16    Zn   0.75003   0.50000   0.49999   1.000
    Zn17    Zn   0.00000   0.00000   0.99999   1.000
    Zn18    Zn   0.50000   0.00000   0.99999   1.000
    H19     H    0.41958   0.49868   0.46392   1.000
    H20     H    0.91960   0.49865   0.46390   1.000
    H21     H    0.20477   0.66569   0.20730   1.000
    H22     H    0.70501   0.66550   0.20733   1.000
    H23     H    0.05051   0.73624   0.22519   1.000
    H24     H    0.55037   0.73582   0.22500   1.000
    H25     H    0.33030   0.00130   0.96395   1.000
    H26     H    0.83032   0.00124   0.96392   1.000
    H27     H    0.04552   0.83466   0.70727   1.000
    H28     H    0.54539   0.83528   0.70696   1.000
    H29     H    0.19996   0.76392   0.72535   1.000
    H30     H    0.70000   0.76393   0.72530   1.000
    H31     H    0.08041   0.50134   0.53600   1.000
    Zn32    Zn   0.09781   0.66242   0.49335   1.000
    H33     H    0.58043   0.50131   0.53607   1.000
    H34     H    0.29500   0.33450   0.79260   1.000
    H35     H    0.79524   0.33433   0.79270   1.000
    H36     H    0.44965   0.26418   0.77480   1.000
    H37     H    0.94950   0.26375   0.77480   1.000
    H38     H    0.16969   0.99876   0.03606   1.000
    H39     H    0.66972   0.99871   0.03604   1.000
    H40     H    0.45462   0.16471   0.29303   1.000
    H41     H    0.95449   0.16532   0.29272   1.000
    H42     H    0.30001   0.23608   0.27468   1.000
    H43     H    0.80004   0.23608   0.27464   1.000
    C44     C    0.42673   0.66487   0.28006   1.000
    C45     C    0.92700   0.66514   0.28016   1.000
    C46     C    0.32809   0.64391   0.27374   1.000
    C47     C    0.82836   0.64401   0.27385   1.000
    C48     C    0.28053   0.68309   0.21206   1.000
    C49     C    0.78074   0.68301   0.21210   1.000
    C50     C    0.32763   0.74403   0.15789   1.000
    C51     C    0.82772   0.74397   0.15780   1.000
    C52     C    0.42593   0.76188   0.16149   1.000
    C53     C    0.92601   0.76198   0.16148   1.000
    C54     C    0.47411   0.72185   0.22240   1.000
    C55     C    0.97427   0.72215   0.22247   1.000
    C56     C    0.48672   0.62534   0.34230   1.000
    C57     C    0.98715   0.62564   0.34228   1.000
    C58     C    0.26861   0.58655   0.33347   1.000
    C59     C    0.76883   0.58666   0.33357   1.000
    C60     C    0.26942   0.78501   0.09673   1.000
    C61     C    0.76938   0.78482   0.09674   1.000
    C62     C    0.47948   0.81924   0.09833   1.000
    C63     C    0.97956   0.81928   0.09829   1.000
    C64     C    0.32347   0.83539   0.78000   1.000
    C65     C    0.82355   0.83522   0.78008   1.000
    C66     C    0.42207   0.85671   0.77355   1.000
    C67     C    0.92217   0.85641   0.77367   1.000
    C68     C    0.46968   0.81762   0.71187   1.000
    C69     C    0.96978   0.81719   0.71207   1.000
    C70     C    0.42271   0.75635   0.65788   1.000
    C71     C    0.92277   0.75604   0.65802   1.000
    C72     C    0.32443   0.73812   0.66160   1.000
    C73     C    0.82447   0.73801   0.66167   1.000
    C74     C    0.27620   0.77813   0.72253   1.000
    C75     C    0.77625   0.77804   0.72254   1.000
    C76     C    0.26340   0.87495   0.84217   1.000
    C77     C    0.76351   0.87482   0.84223   1.000
    C78     C    0.48148   0.91411   0.83329   1.000
    C79     C    0.98154   0.91393   0.83334   1.000
    C80     C    0.48104   0.71538   0.59686   1.000
    C81     C    0.98106   0.71507   0.59694   1.000
    C82     C    0.27074   0.68060   0.59864   1.000
    C83     C    0.77081   0.68056   0.59860   1.000
    C84     C    0.07301   0.33485   0.71982   1.000
    C85     C    0.57328   0.33513   0.71990   1.000
    C86     C    0.17165   0.35598   0.72614   1.000
    C87     C    0.67192   0.35610   0.72625   1.000
    C88     C    0.21927   0.31699   0.78780   1.000
    C89     C    0.71949   0.31693   0.78793   1.000
    C90     C    0.17229   0.25603   0.84211   1.000
    C91     C    0.67239   0.25598   0.84210   1.000
    C92     C    0.07400   0.23801   0.83850   1.000
    C93     C    0.57409   0.23812   0.83849   1.000
    C94     C    0.02574   0.27784   0.77752   1.000
    C95     C    0.52590   0.27816   0.77758   1.000
    C96     C    0.01286   0.37435   0.65771   1.000
    C97     C    0.51329   0.37467   0.65769   1.000
    C98     C    0.23118   0.41334   0.66642   1.000
    C99     C    0.73140   0.41346   0.66653   1.000
    C100    C    0.23064   0.21519   0.90324   1.000
    C101    C    0.73060   0.21500   0.90326   1.000
    C102    C    0.02045   0.18071   0.90170   1.000
    C103    C    0.52053   0.18075   0.90164   1.000
    C104    C    0.17646   0.16479   0.21990   1.000
    C105    C    0.67654   0.16461   0.21995   1.000
    C106    C    0.07785   0.14359   0.22632   1.000
    C107    C    0.57794   0.14329   0.22644   1.000
    C108    C    0.03023   0.18280   0.28791   1.000
    C109    C    0.53033   0.18237   0.28812   1.000
    C110    C    0.07724   0.24396   0.34197   1.000
    C111    C    0.57730   0.24364   0.34210   1.000
    C112    C    0.17553   0.26199   0.33832   1.000
    C113    C    0.67557   0.26188   0.33833   1.000
    C114    C    0.22376   0.22197   0.27744   1.000
    C115    C    0.72381   0.22186   0.27745   1.000
    C116    C    0.23651   0.12520   0.15775   1.000
    C117    C    0.73661   0.12505   0.15781   1.000
    C118    C    0.01847   0.08606   0.16660   1.000
    C119    C    0.51853   0.08588   0.16670   1.000
    C120    C    0.01895   0.28493   0.40305   1.000
    C121    C    0.51896   0.28461   0.40313   1.000
    C122    C    0.22920   0.31944   0.40138   1.000
    C123    C    0.72926   0.31940   0.40130   1.000
    O124    O    0.47894   0.54118   0.34740   1.000
    O125    O    0.97914   0.54149   0.34750   1.000
    O126    O    0.04531   0.68032   0.38172   1.000
    O127    O    0.54453   0.68009   0.38198   1.000
    O128    O    0.19055   0.54686   0.30603   1.000
    O129    O    0.69068   0.54710   0.30616   1.000
    O130    O    0.29769   0.58547   0.40628   1.000
    O131    O    0.79794   0.58549   0.40636   1.000
    O132    O    0.25541   0.86713   0.10450   1.000
    O133    O    0.75561   0.86702   0.10432   1.000
    O134    O    0.22843   0.73863   0.04104   1.000
    O135    O    0.72803   0.73828   0.04132   1.000
    O136    O    0.04424   0.78556   0.06189   1.000
    O137    O    0.54418   0.78556   0.06192   1.000
    O138    O    0.45567   0.89586   0.08546   1.000
    O139    O    0.95576   0.89590   0.08538   1.000
    O140    O    0.38680   0.46769   0.51032   1.000
    O141    O    0.88684   0.46767   0.51031   1.000
    O142    O    0.27152   0.95910   0.84748   1.000
    O143    O    0.77156   0.95897   0.84747   1.000
    O144    O    0.20517   0.82033   0.88159   1.000
    O145    O    0.70539   0.82018   0.88173   1.000
    O146    O    0.05935   0.95413   0.80580   1.000
    O147    O    0.55933   0.95427   0.80580   1.000
    O148    O    0.45258   0.91468   0.90617   1.000
    O149    O    0.95260   0.91463   0.90620   1.000
    O150    O    0.49415   0.63298   0.60410   1.000
    O151    O    0.99451   0.63278   0.60439   1.000
    O152    O    0.02260   0.76162   0.54160   1.000
    O153    O    0.52293   0.76199   0.54172   1.000
    O154    O    0.20640   0.71444   0.56189   1.000
    O155    O    0.70639   0.71437   0.56191   1.000
    O156    O    0.29394   0.60363   0.58628   1.000
    O157    O    0.79416   0.60367   0.58610   1.000
    O158    O    0.36310   0.03226   0.01030   1.000
    O159    O    0.86308   0.03221   0.01035   1.000
    O160    O    0.02087   0.45850   0.65249   1.000
    O161    O    0.52108   0.45882   0.65257   1.000
    O162    O    0.45549   0.31991   0.61801   1.000
    O163    O    0.95469   0.31968   0.61827   1.000
    O164    O    0.30933   0.45289   0.69380   1.000
    O165    O    0.80945   0.45316   0.69396   1.000
    O166    O    0.20206   0.41451   0.59363   1.000
    O167    O    0.70232   0.41452   0.59371   1.000
    O168    O    0.24440   0.13297   0.89568   1.000
    O169    O    0.74459   0.13288   0.89550   1.000
    O170    O    0.27200   0.26173   0.95865   1.000
    O171    O    0.77161   0.26139   0.95893   1.000
    O172    O    0.45585   0.21444   0.93808   1.000
    O173    O    0.95577   0.21444   0.93810   1.000
    O174    O    0.04424   0.10409   0.91459   1.000
    O175    O    0.54431   0.10411   0.91440   1.000
    O176    O    0.11317   0.53233   0.48967   1.000
    O177    O    0.61321   0.53230   0.48967   1.000
    O178    O    0.22847   0.04105   0.15252   1.000
    O179    O    0.72850   0.04090   0.15251   1.000
    O180    O    0.29462   0.17985   0.11825   1.000
    O181    O    0.79483   0.17967   0.11840   1.000
    O182    O    0.44070   0.04570   0.19414   1.000
    O183    O    0.94066   0.04587   0.19412   1.000
    O184    O    0.04742   0.08536   0.09379   1.000
    O185    O    0.54743   0.08531   0.09382   1.000
    O186    O    0.00550   0.36722   0.39560   1.000
    O187    O    0.50585   0.36701   0.39583   1.000
    O188    O    0.47708   0.23800   0.45826   1.000
    O189    O    0.97741   0.23838   0.45830   1.000
    O190    O    0.29361   0.28563   0.43808   1.000
    O191    O    0.79361   0.28555   0.43809   1.000
    O192    O    0.20586   0.39633   0.41385   1.000
    O193    O    0.70606   0.39636   0.41371   1.000
    O194    O    0.13692   0.96779   0.98964   1.000
    O195    O    0.63691   0.96774   0.98962   1.000
loop_
    _geom_bond_atom_site_label_1
    _geom_bond_atom_site_label_2
    _geom_bond_distance
    _geom_bond_site_symmetry_2
    _ccdc_geom_bond_type
    Zn11   O158      2.02527      .   S
    Zn11   O180      2.01308      .   S
    Zn11   O172      1.99827  1_554   S
    Zn11   O170      2.12513  1_554   S
    Zn12   O159      2.02496      .   S
    Zn12   O181      2.01308      .   S
    Zn12   O173      1.99802  1_554   S
    Zn12   O171      2.12398  1_554   S
    O158   H25       0.98236  1_554   S
    O159   H26       0.98321  1_554   S
    H39    O195      0.98327  1_554   S
    H38    O194      0.98311  1_554   S
    O134   C60       1.25418      .   S
    O134   Zn3       2.12387  1_554   S
    O135   C61       1.25412      .   S
    O135   Zn4       2.12520  1_554   S
    O136   C63       1.26772  1_455   S
    O136   Zn3       1.99794  1_554   S
    O137   C62       1.26763      .   S
    O137   Zn4       1.99828  1_554   S
    O139   C63       1.27636      .   S
    O139   Zn17      2.14993  1_664   S
    O138   C62       1.27644      .   S
    O138   Zn18      2.15145  1_564   S
    O184   C118      1.26519      .   S
    O184   Zn17      2.07235  1_554   S
    O185   C119      1.26596      .   S
    O185   Zn18      2.07232  1_554   S
    C60    O132      1.29950      .   S
    C60    C50       1.49344      .   S
    C61    O133      1.29964      .   S
    C61    C51       1.49257      .   S
    C63    C53       1.50146      .   S
    C62    C52       1.50164      .   S
    O133   Zn14      2.00091      .   S
    O132   Zn13      2.00074      .   S
    O180   C116      1.27661      .   S
    O181   C117      1.27648      .   S
    Zn14   O179      2.06384  1_565   S
    Zn14   O183      1.98454  1_565   S
    Zn13   O178      2.06446  1_565   S
    Zn13   O182      1.98406  1_565   S
    O179   C117      1.27588      .   S
    O178   C116      1.27582      .   S
    C116   C104      1.51058      .   S
    C51    C53       1.40353      .   S
    C51    C49       1.39618      .   S
    C117   C105      1.51049      .   S
    C50    C52       1.40348      .   S
    C50    C48       1.39540      .   S
    C53    C55       1.39952      .   S
    C52    C54       1.39953      .   S
    C118   O183      1.28440  1_455   S
    C118   C106      1.50388      .   S
    C119   O182      1.28421      .   S
    C119   C107      1.50339      .   S
    H21    C48       1.08834      .   S
    H22    C49       1.08830      .   S
    C48    C46       1.39727      .   S
    C49    C47       1.39718      .   S
    C104   C106      1.41475      .   S
    C104   C114      1.39941      .   S
    C105   C107      1.41479      .   S
    C105   C115      1.39938      .   S
    C54    H24       1.08878      .   S
    C54    C44       1.39946      .   S
    C55    H23       1.08877  1_655   S
    C55    C45       1.39941      .   S
    C106   C108      1.39700      .   S
    C107   C109      1.39709      .   S
    C46    C44       1.41461      .   S
    C46    C58       1.50343      .   S
    C47    C45       1.41488      .   S
    C47    C59       1.50362      .   S
    H43    C115      1.08882      .   S
    H42    C114      1.08885      .   S
    C114   C112      1.39954      .   S
    C115   C113      1.39956      .   S
    C44    C56       1.51059      .   S
    C45    C57       1.51044      .   S
    C108   H41       1.08830  1_455   S
    C108   C110      1.39568      .   S
    C109   H40       1.08839      .   S
    C109   C111      1.39564      .   S
    O128   C58       1.28400      .   S
    O128   Zn1       1.98638      .   S
    O129   C59       1.28417      .   S
    O129   Zn2       1.98739      .   S
    C58    O130      1.26612      .   S
    C59    O131      1.26603      .   S
    C112   C110      1.40359      .   S
    C112   C122      1.50186      .   S
    C113   C111      1.40361      .   S
    C113   C123      1.50162      .   S
    C110   C120      1.49334      .   S
    C111   C121      1.49319      .   S
    C57    O125      1.27576      .   S
    C57    O126      1.27672  1_655   S
    C56    O124      1.27586      .   S
    C56    O127      1.27651      .   S
    O124   Zn2       2.06227      .   S
    O125   Zn1       2.06135  1_655   S
    Zn2    O187      2.00231      .   S
    Zn1    O186      2.00167      .   S
    O126   Zn32      2.01227      .   S
    O127   Zn0       2.00652      .   S
    O186   C120      1.29934      .   S
    O187   C121      1.29956      .   S
    C123   O193      1.27674      .   S
    C123   O191      1.26781      .   S
    C122   O192      1.27667      .   S
    C122   O190      1.26750      .   S
    C120   O189      1.25337  1_455   S
    C121   O188      1.25440      .   S
    O130   Zn15      2.07342      .   S
    O131   Zn16      2.07321      .   S
    O193   Zn16      2.15384      .   S
    O192   Zn15      2.15324      .   S
    O190   Zn7       2.00107      .   S
    O191   Zn8       2.00086      .   S
    O188   Zn7       2.12335      .   S
    O189   Zn8       2.12242      .   S
    H20    O141      0.98304      .   S
    H19    O140      0.98309      .   S
    O176   Zn32      2.02433      .   S
    O176   H31       0.98203      .   S
    O177   Zn0       2.02482      .   S
    O177   H33       0.98307      .   S
    Zn0    O153      2.12575      .   S
    Zn0    O155      2.00472      .   S
    Zn32   O152      2.12192      .   S
    Zn32   O154      2.00076      .   S
    Zn16   O157      2.15293      .   S
    Zn16   O167      2.07337      .   S
    Zn15   O156      2.15378      .   S
    Zn15   O166      2.07325      .   S
    Zn7    O140      2.02500      .   S
    Zn7    O162      2.01252      .   S
    Zn8    O141      2.02434      .   S
    Zn8    O163      2.01222      .   S
    O152   C81       1.25442  1_455   S
    O153   C80       1.25453      .   S
    O154   C82       1.26749      .   S
    O155   C83       1.26747      .   S
    O157   C83       1.27673      .   S
    O156   C82       1.27660      .   S
    O166   C98       1.26603      .   S
    O167   C99       1.26624      .   S
    C80    O150      1.29947      .   S
    C80    C70       1.49308      .   S
    C81    O151      1.29935      .   S
    C81    C71       1.49334      .   S
    C83    C73       1.50197      .   S
    C82    C72       1.50151      .   S
    O150   Zn9       2.00243      .   S
    O151   Zn10      2.00169      .   S
    O162   C97       1.27651      .   S
    O163   C96       1.27675  1_655   S
    Zn10   O160      2.06134  1_655   S
    Zn10   O165      1.98624      .   S
    Zn9    O161      2.06223      .   S
    Zn9    O164      1.98711      .   S
    O160   C96       1.27578      .   S
    O161   C97       1.27587      .   S
    C97    C85       1.51024      .   S
    C96    C84       1.51034      .   S
    C70    C72       1.40357      .   S
    C70    C68       1.39574      .   S
    C71    C73       1.40359      .   S
    C71    C69       1.39557      .   S
    C72    C74       1.40014      .   S
    C73    C75       1.39948      .   S
    C98    O164      1.28401      .   S
    C98    C86       1.50361      .   S
    C99    O165      1.28394      .   S
    C99    C87       1.50330      .   S
    H28    C68       1.08839      .   S
    H27    C69       1.08829  1_455   S
    C68    C66       1.39707      .   S
    C69    C67       1.39718      .   S
    C84    C86       1.41490      .   S
    C84    C94       1.39951      .   S
    C85    C87       1.41463      .   S
    C85    C95       1.39972      .   S
    C74    H29       1.08883      .   S
    C74    C64       1.39907      .   S
    C75    H30       1.08886      .   S
    C75    C65       1.39941      .   S
    C86    C88       1.39611      .   S
    C87    C89       1.39726      .   S
    C66    C64       1.41473      .   S
    C66    C78       1.50339      .   S
    C67    C65       1.41473      .   S
    C67    C79       1.50331      .   S
    H36    C95       1.08890      .   S
    H37    C94       1.08877  1_655   S
    C94    C92       1.39941      .   S
    C95    C93       1.39953      .   S
    C64    C76       1.51083      .   S
    C65    C77       1.51057      .   S
    C88    H34       1.08835      .   S
    C88    C90       1.39627      .   S
    C89    H35       1.08835      .   S
    C89    C91       1.39544      .   S
    O147   C78       1.28451      .   S
    O147   Zn6       1.98449  1_565   S
    O146   C79       1.28453  1_455   S
    O146   Zn5       1.98507  1_565   S
    C78    O148      1.26600      .   S
    C79    O149      1.26597      .   S
    C93    C91       1.40348      .   S
    C93    C103      1.50165      .   S
    C92    C90       1.40349      .   S
    C92    C102      1.50159      .   S
    C91    C101      1.49345      .   S
    C90    C100      1.49336      .   S
    C76    O142      1.27590      .   S
    C76    O144      1.27659      .   S
    C77    O143      1.27583      .   S
    C77    O145      1.27661      .   S
    O143   Zn6       2.06449  1_565   S
    O142   Zn5       2.06383  1_565   S
    Zn6    O169      2.00081      .   S
    Zn5    O168      2.00097      .   S
    O144   Zn3       2.01304      .   S
    O145   Zn4       2.01300      .   S
    O169   C101      1.29950      .   S
    O168   C100      1.29961      .   S
    C103   O175      1.27624      .   S
    C103   O172      1.26767      .   S
    C102   O174      1.27633      .   S
    C102   O173      1.26767  1_455   S
    C100   O170      1.25416      .   S
    C101   O171      1.25412      .   S
    O148   Zn18      2.07226  1_565   S
    O149   Zn17      2.07226  1_665   S
    O175   Zn18      2.15233      .   S
    O174   Zn17      2.14989      .   S
    O195   Zn4       2.02536      .   S
    O194   Zn3       2.02496      .   S
    O138   Zn13      2.25999      .   S
    O139   Zn14      2.26010      .   S
    O140   Zn9       2.06037      .   S
    O140   Zn15      2.09289      .   S
    O141   Zn10      2.06045      .   S
    O141   Zn16      2.09298      .   S
    O156   Zn9       2.25384      .   S
    O157   Zn10      2.25339      .   S
    O158   Zn13      2.06031  1_545   S
    O158   Zn18      2.09393  1_554   S
    O159   Zn14      2.05924  1_545   S
    O159   Zn17      2.09386  1_654   S
    O174   Zn5       2.26005      .   S
    O175   Zn6       2.25954      .   S
    O176   Zn1       2.06027      .   S
    O176   Zn15      2.09299      .   S
    O177   Zn2       2.06038      .   S
    O177   Zn16      2.09289      .   S
    O192   Zn1       2.25322      .   S
    O193   Zn2       2.25378      .   S
    O194   Zn5       2.05937  1_565   S
    O194   Zn17      2.09399  1_565   S
    O195   Zn6       2.05936  1_565   S
    O195   Zn18      2.09402  1_565   S
