# CIF file generated by openbabel 2.4.90, see http://openbabel.sf.net
data_I
_chemical_name_common ''
_cell_length_a 14.357
_cell_length_b 15.243
_cell_length_c 16.405
_cell_angle_alpha 89.997
_cell_angle_beta 90.004
_cell_angle_gamma 97.449
_space_group_name_H-M_alt 'P 1'
_space_group_name_Hall 'P 1'
loop_
    _symmetry_equiv_pos_as_xyz
    x,y,z
loop_
    _atom_site_label
    _atom_site_type_symbol
    _atom_site_fract_x
    _atom_site_fract_y
    _atom_site_fract_z
    _atom_site_occupancy
    C0      C    0.48672   0.62534   0.34230   1.000
    C1      C    0.98715   0.62564   0.34228   1.000
    C2      C    0.26861   0.58655   0.33347   1.000
    C3      C    0.76883   0.58666   0.33357   1.000
    C4      C    0.26942   0.78501   0.09673   1.000
    C5      C    0.76938   0.78482   0.09674   1.000
    C6      C    0.47948   0.81924   0.09833   1.000
    C7      C    0.97956   0.81928   0.09829   1.000
    C8      C    0.26340   0.87495   0.84217   1.000
    C9      C    0.76351   0.87482   0.84223   1.000
    C10     C    0.48148   0.91411   0.83329   1.000
    C11     C    0.98154   0.91393   0.83334   1.000
    C12     C    0.48104   0.71538   0.59686   1.000
    C13     C    0.98106   0.71507   0.59694   1.000
    C14     C    0.27074   0.68060   0.59864   1.000
    C15     C    0.77081   0.68056   0.59860   1.000
    C16     C    0.01286   0.37435   0.65771   1.000
    C17     C    0.51329   0.37467   0.65769   1.000
    C18     C    0.23118   0.41334   0.66642   1.000
    C19     C    0.73140   0.41346   0.66653   1.000
    C20     C    0.23064   0.21519   0.90324   1.000
    C21     C    0.73060   0.21500   0.90326   1.000
    C22     C    0.02045   0.18071   0.90170   1.000
    C23     C    0.52053   0.18075   0.90164   1.000
    C24     C    0.23651   0.12520   0.15775   1.000
    C25     C    0.73661   0.12505   0.15781   1.000
    C26     C    0.01847   0.08606   0.16660   1.000
    C27     C    0.51853   0.08588   0.16670   1.000
    C28     C    0.01895   0.28493   0.40305   1.000
    C29     C    0.51896   0.28461   0.40313   1.000
    C30     C    0.22920   0.31944   0.40138   1.000
    C31     C    0.72926   0.31940   0.40130   1.000
