# CIF file generated by openbabel 2.4.90, see http://openbabel.sf.net
data_I
_chemical_name_common ''
_cell_length_a 14.357
_cell_length_b 15.243
_cell_length_c 16.405
_cell_angle_alpha 89.997
_cell_angle_beta 90.004
_cell_angle_gamma 97.449
_space_group_name_H-M_alt 'P 1'
_space_group_name_Hall 'P 1'
loop_
    _symmetry_equiv_pos_as_xyz
    x,y,z
loop_
    _atom_site_label
    _atom_site_type_symbol
    _atom_site_fract_x
    _atom_site_fract_y
    _atom_site_fract_z
    _atom_site_occupancy
    Zr0     Zr   0.09781   0.66242   0.49335   1.000
    Zr1     Zr   0.59772   0.66241   0.49300   1.000
    Zr2     Zr   0.09349   0.47796   0.37500   1.000
    Zr3     Zr   0.59355   0.47794   0.37499   1.000
    Zr4     Zr   0.15245   0.83769   0.99328   1.000
    Zr5     Zr   0.65245   0.83763   0.99332   1.000
    Zr6     Zr   0.15664   0.02215   0.87503   1.000
    Zr7     Zr   0.65669   0.02212   0.87502   1.000
    Zr8     Zr   0.40229   0.33759   0.50659   1.000
    Zr9     Zr   0.90220   0.33758   0.50664   1.000
    Zr10    Zr   0.40645   0.52205   0.62500   1.000
    Zr11    Zr   0.90652   0.52204   0.62499   1.000
    Zr12    Zr   0.34756   0.16238   0.00666   1.000
    Zr13    Zr   0.84756   0.16231   0.00671   1.000
    Zr14    Zr   0.34332   0.97788   0.12496   1.000
    Zr15    Zr   0.84337   0.97784   0.12495   1.000
    Zr16    Zr   0.24998   0.50000   0.50000   1.000
    Zr17    Zr   0.75003   0.50000   0.49999   1.000
    Zr18    Zr   0.00000   0.00000   0.99999   1.000
    Zr19    Zr   0.50000   0.00000   0.99999   1.000
    N20     N    0.37727   0.70264   0.21749   1.000
    N21     N    0.37299   0.79769   0.71747   1.000
    N22     N    0.62275   0.29737   0.78247   1.000
    N23     N    0.62702   0.20230   0.28251   1.000
    N24     N    0.12256   0.29724   0.78241   1.000
    N25     N    0.12695   0.20256   0.28241   1.000
    N26     N    0.87306   0.79744   0.71758   1.000
    N27     N    0.87745   0.70275   0.21755   1.000
    C28     C    0.75101   0.79671   0.08079   1.000
    O29     O    0.72063   0.79233   0.04906   1.000
    O30     O    0.77525   0.85957   0.09771   1.000
    O31     O    0.79450   0.76514   0.12660   1.000
    C32     C    0.49311   0.83355   0.08190   1.000
    O33     O    0.45405   0.79008   0.12780   1.000
    O34     O    0.48547   0.89074   0.06231   1.000
    O35     O    0.44630   0.88521   0.09356   1.000
    O36     O    0.54571   0.82257   0.05476   1.000
    C37     C    0.50690   0.16643   0.91804   1.000
    O38     O    0.55370   0.11477   0.90637   1.000
    O39     O    0.51453   0.10924   0.93762   1.000
    O40     O    0.54596   0.20992   0.87215   1.000
    O41     O    0.45430   0.17742   0.94520   1.000
    C42     C    0.24670   0.88479   0.85708   1.000
    O43     O    0.21275   0.85690   0.89726   1.000
    O44     O    0.28995   0.85561   0.81068   1.000
    O45     O    0.23039   0.93771   0.85917   1.000
    C46     C    0.00219   0.07243   0.15150   1.000
    O47     O    0.01295   0.05756   0.09920   1.000
    O48     O    0.94710   0.04214   0.15552   1.000
    O49     O    0.04487   0.11556   0.19547   1.000
    C50     C    0.75331   0.11521   0.14291   1.000
    O51     O    0.76962   0.06229   0.14082   1.000
    O52     O    0.78726   0.14310   0.10273   1.000
    O53     O    0.71006   0.14439   0.18930   1.000
    C54     C    0.99783   0.92756   0.84845   1.000
    O55     O    0.05291   0.95785   0.84443   1.000
    O56     O    0.95514   0.88443   0.80449   1.000
    O57     O    0.98706   0.94244   0.90077   1.000
    C58     C    0.50222   0.07230   0.15155   1.000
    O59     O    0.44711   0.04204   0.15555   1.000
    O60     O    0.54492   0.11537   0.19555   1.000
    O61     O    0.51297   0.05748   0.09923   1.000
    C62     C    0.24901   0.20330   0.91919   1.000
    O63     O    0.22477   0.14043   0.90227   1.000
    O64     O    0.20551   0.23486   0.87337   1.000
    O65     O    0.27940   0.20767   0.95092   1.000
    C66     C    0.99319   0.83358   0.08185   1.000
    O67     O    0.95415   0.79014   0.12778   1.000
    O68     O    0.04577   0.82260   0.05472   1.000
    O69     O    0.98553   0.89077   0.06227   1.000
    O70     O    0.94638   0.88523   0.09351   1.000
    C71     C    0.84670   0.01673   0.98713   1.000
    O72     O    0.88912   0.01642   0.99615   1.000
    O73     O    0.85101   0.05699   0.99783   1.000
    O74     O    0.84996   0.01088   0.02739   1.000
    C75     C    0.49780   0.92769   0.84842   1.000
    O76     O    0.45509   0.88462   0.80443   1.000
    O77     O    0.55290   0.95794   0.84441   1.000
    O78     O    0.48704   0.94252   0.90075   1.000
    C79     C    0.65331   0.98323   0.01283   1.000
    O80     O    0.64900   0.94296   0.00215   1.000
    O81     O    0.61089   0.98355   0.00382   1.000
    O82     O    0.65006   0.98908   0.97257   1.000
    C83     C    0.74682   0.88466   0.85714   1.000
    O84     O    0.73047   0.93760   0.85919   1.000
    O85     O    0.71287   0.85678   0.89733   1.000
    O86     O    0.79006   0.85544   0.81075   1.000
    C87     C    0.25320   0.11536   0.14284   1.000
    O88     O    0.28715   0.14324   0.10265   1.000
    O89     O    0.20996   0.14457   0.18923   1.000
    O90     O    0.26955   0.06241   0.14079   1.000
    C91     C    0.25109   0.79692   0.08076   1.000
    O92     O    0.27522   0.85971   0.09774   1.000
    O93     O    0.29449   0.76525   0.12658   1.000
    O94     O    0.22076   0.79254   0.04896   1.000
    C95     C    0.34670   0.01678   0.98712   1.000
    O96     O    0.35101   0.05705   0.99780   1.000
    O97     O    0.34995   0.01092   0.02738   1.000
    O98     O    0.38912   0.01646   0.99613   1.000
    C99     C    0.15331   0.98327   0.01285   1.000
    O100    O    0.14900   0.94301   0.00215   1.000
    O101    O    0.15005   0.98912   0.97259   1.000
    O102    O    0.11089   0.98358   0.00383   1.000
    C103    C    0.74893   0.20309   0.91923   1.000
    O104    O    0.70553   0.23476   0.87340   1.000
    O105    O    0.72479   0.14030   0.90224   1.000
    O106    O    0.77926   0.20747   0.95102   1.000
    C107    C    0.00682   0.16641   0.91813   1.000
    O108    O    0.95425   0.17739   0.94527   1.000
    O109    O    0.05363   0.11477   0.90647   1.000
    O110    O    0.01447   0.10923   0.93771   1.000
    O111    O    0.04586   0.20986   0.87219   1.000
    C112    C    0.25229   0.57296   0.34859   1.000
    O113    O    0.29505   0.61595   0.30457   1.000
    O114    O    0.26306   0.55785   0.40087   1.000
    O115    O    0.19715   0.54269   0.34455   1.000
    C116    C    0.50340   0.61554   0.35723   1.000
    O117    O    0.46020   0.64471   0.31078   1.000
    O118    O    0.53726   0.64340   0.39736   1.000
    O119    O    0.51982   0.56255   0.35921   1.000
    C120    C    0.75248   0.57308   0.34870   1.000
    O121    O    0.69730   0.54280   0.34464   1.000
    O122    O    0.79525   0.61606   0.30466   1.000
    O123    O    0.76323   0.55791   0.40094   1.000
    C124    C    0.24752   0.42691   0.65128   1.000
    O125    O    0.23677   0.44208   0.59905   1.000
    O126    O    0.30271   0.45719   0.65534   1.000
    O127    O    0.20476   0.38393   0.69531   1.000
    C128    C    0.24289   0.33380   0.41777   1.000
    O129    O    0.19628   0.38547   0.40610   1.000
    O130    O    0.23540   0.39098   0.43735   1.000
    O131    O    0.20377   0.29022   0.37195   1.000
    O132    O    0.29542   0.32270   0.44505   1.000
    C133    C    0.59682   0.51681   0.51287   1.000
    O134    O    0.60010   0.51097   0.47260   1.000
    O135    O    0.63922   0.51648   0.50385   1.000
    O136    O    0.60114   0.55708   0.50210   1.000
    C137    C    0.00386   0.61582   0.35717   1.000
    O138    O    0.03771   0.64359   0.39735   1.000
    O139    O    0.02009   0.56277   0.35921   1.000
    O140    O    0.96056   0.64494   0.31078   1.000
    C141    C    0.74773   0.42705   0.65140   1.000
    O142    O    0.73695   0.44216   0.59912   1.000
    O143    O    0.80286   0.45733   0.65544   1.000
    O144    O    0.70496   0.38406   0.69541   1.000
    C145    C    0.74298   0.33377   0.41770   1.000
    O146    O    0.69639   0.38546   0.40602   1.000
    O147    O    0.73551   0.39097   0.43727   1.000
    O148    O    0.79544   0.32267   0.44503   1.000
    O149    O    0.70385   0.29012   0.37193   1.000
    C150    C    0.25703   0.66623   0.58227   1.000
    O151    O    0.20456   0.67733   0.55494   1.000
    O152    O    0.29616   0.70988   0.62803   1.000
    O153    O    0.26449   0.60902   0.56270   1.000
    O154    O    0.30361   0.61453   0.59395   1.000
    C155    C    0.50063   0.29654   0.41907   1.000
    O156    O    0.47016   0.29217   0.45075   1.000
    O157    O    0.52517   0.35951   0.40224   1.000
    O158    O    0.54410   0.26488   0.37332   1.000
    C159    C    0.75712   0.66620   0.58220   1.000
    O160    O    0.70459   0.67729   0.55483   1.000
    O161    O    0.76461   0.60902   0.56262   1.000
    O162    O    0.80373   0.61453   0.59387   1.000
    O163    O    0.79624   0.70978   0.62803   1.000
    C164    C    0.90322   0.48316   0.48711   1.000
    O165    O    0.89887   0.44289   0.49779   1.000
    O166    O    0.89995   0.48901   0.52738   1.000
    O167    O    0.86083   0.48350   0.49613   1.000
    C168    C    0.40319   0.48319   0.48712   1.000
    O169    O    0.39990   0.48903   0.52739   1.000
    O170    O    0.36079   0.48352   0.49614   1.000
    O171    O    0.39886   0.44291   0.49779   1.000
    C172    C    0.49662   0.38447   0.64276   1.000
    O173    O    0.46275   0.35661   0.60253   1.000
    O174    O    0.48019   0.43745   0.64077   1.000
    O175    O    0.53982   0.35530   0.68919   1.000
    C176    C    0.49937   0.70345   0.58089   1.000
    O177    O    0.52985   0.70783   0.54913   1.000
    O178    O    0.47484   0.64048   0.59772   1.000
    O179    O    0.45590   0.73512   0.62666   1.000
    C180    C    0.09679   0.51683   0.51284   1.000
    O181    O    0.10006   0.51099   0.47258   1.000
    O182    O    0.13918   0.51650   0.50384   1.000
    O183    O    0.10114   0.55710   0.50217   1.000
    C184    C    0.99614   0.38418   0.64282   1.000
    O185    O    0.96229   0.35640   0.60264   1.000
    O186    O    0.03944   0.35505   0.68921   1.000
    O187    O    0.97992   0.43722   0.64078   1.000
    C188    C    0.99939   0.70316   0.58098   1.000
    O189    O    0.97495   0.64028   0.59783   1.000
    O190    O    0.02979   0.70759   0.54923   1.000
    O191    O    0.95594   0.73483   0.62675   1.000
    C192    C    0.00062   0.29684   0.41898   1.000
    O193    O    0.02506   0.35972   0.40214   1.000
    O194    O    0.04407   0.26517   0.37322   1.000
    O195    O    0.97021   0.29241   0.45073   1.000
loop_
    _geom_bond_atom_site_label_1
    _geom_bond_atom_site_label_2
    _geom_bond_distance
    _geom_bond_site_symmetry_2
    _ccdc_geom_bond_type
    C28    O29       0.67690      .   S
    Zr5    O29       1.56387  1_556   S
    C28    O30       1.01485      .   S
    Zr15   O30       1.98725      .   S
    C28    O31       1.12430      .   S
    N27    O31       2.20042      .   S
    C32    O33       1.10648      .   S
    N20    O33       2.18526      .   S
    C32    O34       0.94867      .   S
    Zr19   O34       1.94223  1_546   S
    C32    O35       1.11601      .   S
    Zr14   O35       2.23345      .   S
    C32    O36       0.91075      .   S
    Zr5    O36       1.82376  1_556   S
    C37    O38       1.11600      .   S
    Zr7    O38       2.23325      .   S
    C37    O39       0.94859      .   S
    Zr19   O39       1.94246      .   S
    C37    O40       1.10643      .   S
    N22    O40       2.18535      .   S
    C37    O41       0.91088      .   S
    Zr12   O41       1.82390  1_554   S
    C42    O43       0.89385      .   S
    Zr4    O43       1.80310      .   S
    C42    O44       1.11119      .   S
    N21    O44       2.19367      .   S
    C42    O45       0.86924      .   S
    Zr6    O45       1.78855  1_545   S
    C46    O47       0.90594      .   S
    Zr18   O47       1.84682  1_556   S
    C46    O48       0.86501  1_455   S
    Zr15   O48       1.74687  1_565   S
    C46    O49       1.10613      .   S
    N25    O49       2.18545      .   S
    C50    O51       0.86927      .   S
    Zr15   O51       1.78861  1_565   S
    C50    O52       0.89381      .   S
    Zr13   O52       1.80307      .   S
    C50    O53       1.11109      .   S
    N23    O53       2.19363      .   S
    C54    O55       0.86501  1_655   S
    Zr6    O55       1.74699  1_545   S
    C54    O56       1.10598      .   S
    N26    O56       2.18518      .   S
    C54    O57       0.90623      .   S
    Zr18   O57       1.84703  1_445   S
    C58    O59       0.86506      .   S
    Zr14   O59       1.74678  1_565   S
    C58    O60       1.10610      .   S
    N23    O60       2.18526      .   S
    C58    O61       0.90594      .   S
    Zr19   O61       1.84674  1_556   S
    C62    O63       1.01490      .   S
    Zr6    O63       1.98736      .   S
    C62    O64       1.12448      .   S
    N24    O64       2.20054      .   S
    C62    O65       0.67687      .   S
    Zr12   O65       1.56380  1_554   S
    C66    O67       1.10641      .   S
    N27    O67       2.18517      .   S
    C66    O68       0.91038  1_655   S
    Zr4    O68       1.82305  1_556   S
    C66    O69       0.94865      .   S
    Zr18   O69       1.94156  1_446   S
    C66    O70       1.11590      .   S
    Zr15   O70       2.23332      .   S
    C71    O72       0.62735      .   S
    Zr18   O72       1.64437  1_455   S
    C71    O73       0.63365      .   S
    Zr13   O73       1.61907  1_554   S
    C71    O74       0.66886  1_556   S
    Zr15   O74       1.67675  1_565   S
    C75    O76       1.10604      .   S
    N21    O76       2.18528      .   S
    C75    O77       0.86508      .   S
    Zr7    O77       1.74687  1_545   S
    C75    O78       0.90608      .   S
    Zr19   O78       1.84683  1_545   S
    C79    O80       0.63363      .   S
    Zr5    O80       1.61923  1_556   S
    C79    O81       0.62745      .   S
    Zr19   O81       1.64456  1_546   S
    C79    O82       0.66882  1_554   S
    Zr7    O82       1.67674  1_545   S
    C83    O84       0.86984      .   S
    Zr7    O84       1.78971  1_545   S
    C83    O85       0.89396      .   S
    Zr5    O85       1.80323      .   S
    C83    O86       1.11111      .   S
    N26    O86       2.19365      .   S
    C87    O88       0.89393      .   S
    Zr12   O88       1.80321      .   S
    C87    O89       1.11109      .   S
    N25    O89       2.19364      .   S
    C87    O90       0.86994      .   S
    Zr14   O90       1.78983  1_565   S
    C91    O92       1.01381      .   S
    Zr14   O92       1.98564      .   S
    C91    O93       1.12444      .   S
    N20    O93       2.20031      .   S
    C91    O94       0.67716      .   S
    Zr4    O94       1.56355  1_556   S
    C95    O96       0.63360      .   S
    Zr12   O96       1.61922  1_554   S
    C95    O97       0.66879  1_556   S
    Zr14   O97       1.67721  1_565   S
    C95    O98       0.62743      .   S
    Zr19   O98       1.64457      .   S
    C99    O100      0.63365      .   S
    Zr4    O100      1.61907  1_556   S
    C99    O101      0.66886  1_554   S
    Zr6    O101      1.67681  1_545   S
    C99    O102      0.62738      .   S
    Zr18   O102      1.64448  1_546   S
    C103   O104      1.12449      .   S
    N22    O104      2.20052      .   S
    C103   O105      1.01391      .   S
    Zr7    O105      1.98582      .   S
    C103   O106      0.67714      .   S
    Zr13   O106      1.56359  1_554   S
    C107   O108      0.91041  1_455   S
    Zr13   O108      1.82312  1_554   S
    C107   O109      1.11588      .   S
    Zr6    O109      2.23329      .   S
    C107   O110      0.94858      .   S
    Zr18   O110      1.94145      .   S
    C107   O111      1.10649      .   S
    N24    O111      2.18539      .   S
    C112   O113      1.10613      .   S
    N20    O113      2.18540      .   S
    C112   O114      0.90641      .   S
    Zr16   O114      1.84786      .   S
    C112   O115      0.86553      .   S
    Zr2    O115      1.74847      .   S
    C116   O117      1.11097      .   S
    N20    O117      2.19358      .   S
    C116   O118      0.89251      .   S
    Zr1    O118      1.79830      .   S
    C116   O119      0.87088      .   S
    Zr3    O119      1.79019      .   S
    C120   O121      0.86622      .   S
    Zr3    O121      1.74991      .   S
    C120   O122      1.10626      .   S
    N27    O122      2.18562      .   S
    C120   O123      0.90605      .   S
    Zr17   O123      1.84726      .   S
    C124   O125      0.90598      .   S
    Zr16   O125      1.84721      .   S
    C124   O126      0.86622      .   S
    Zr10   O126      1.74986      .   S
    C124   O127      1.10622      .   S
    N24    O127      2.18540      .   S
    C128   O129      1.11419      .   S
    Zr2    O129      2.22817      .   S
    C128   O130      0.94804      .   S
    Zr16   O130      1.94207      .   S
    C128   O131      1.10678      .   S
    N25    O131      2.18574      .   S
    C128   O132      0.91144      .   S
    Zr8    O132      1.82600      .   S
    C133   O134      0.66909      .   S
    Zr3    O134      1.67755      .   S
    C133   O135      0.62711      .   S
    Zr17   O135      1.64365      .   S
    C133   O136      0.63406      .   S
    Zr1    O136      1.61949      .   S
    C137   O138      0.89252      .   S
    Zr0    O138      1.80073      .   S
    C137   O139      0.87064      .   S
    Zr2    O139      1.78948      .   S
    C137   O140      1.11097  1_455   S
    N27    O140      2.19352      .   S
    C141   O142      0.90641      .   S
    Zr17   O142      1.84782      .   S
    C141   O143      0.86551      .   S
    Zr11   O143      1.74839      .   S
    C141   O144      1.10605      .   S
    N22    O144      2.18515      .   S
    C145   O146      1.11420      .   S
    Zr3    O146      2.22842      .   S
    C145   O147      0.94827      .   S
    Zr17   O147      1.94268      .   S
    C145   O148      0.91107      .   S
    Zr9    O148      1.82536      .   S
    C145   O149      1.10686      .   S
    N23    O149      2.18578      .   S
    C150   O151      0.91099      .   S
    Zr0    O151      1.82522      .   S
    C150   O152      1.10678      .   S
    N21    O152      2.18593      .   S
    C150   O153      0.94821      .   S
    Zr16   O153      1.94257      .   S
    C150   O154      1.11424      .   S
    Zr10   O154      2.22849      .   S
    C155   O156      0.67702      .   S
    Zr8    O156      1.56301      .   S
    C155   O157      1.01682      .   S
    Zr3    O157      1.99078      .   S
    C155   O158      1.12434      .   S
    N23    O158      2.20022      .   S
    C159   O160      0.91220      .   S
    Zr1    O160      1.82865      .   S
    C159   O161      0.94805      .   S
    Zr17   O161      1.94197      .   S
    C159   O162      1.11420      .   S
    Zr11   O162      2.22826      .   S
    C159   O163      1.10685      .   S
    N26    O163      2.18581      .   S
    C164   O165      0.63361      .   S
    Zr9    O165      1.61873      .   S
    C164   O166      0.66912      .   S
    Zr11   O166      1.67763      .   S
    C164   O167      0.62706      .   S
    Zr17   O167      1.64363      .   S
    C168   O169      0.66909      .   S
    Zr10   O169      1.67754      .   S
    C168   O170      0.62710      .   S
    Zr16   O170      1.64364      .   S
    C168   O171      0.63361      .   S
    Zr8    O171      1.61905      .   S
    C172   O173      0.89371      .   S
    Zr8    O173      1.80260      .   S
    C172   O174      0.87086      .   S
    Zr10   O174      1.79015      .   S
    C172   O175      1.11087      .   S
    N22    O175      2.19338      .   S
    C176   O177      0.67818      .   S
    Zr1    O177      1.56578      .   S
    C176   O178      1.01680      .   S
    Zr10   O178      1.99085      .   S
    C176   O179      1.12441      .   S
    N21    O179      2.20023      .   S
    C180   O181      0.66876      .   S
    Zr2    O181      1.67718      .   S
    C180   O182      0.62697      .   S
    Zr16   O182      1.64361      .   S
    C180   O183      0.63350      .   S
    Zr0    O183      1.61869      .   S
    C184   O185      0.89252      .   S
    Zr9    O185      1.80070      .   S
    C184   O186      1.11089  1_655   S
    N24    O186      2.19329      .   S
    C184   O187      0.87064      .   S
    Zr11   O187      1.78948      .   S
    C188   O189      1.01530      .   S
    Zr11   O189      1.98827      .   S
    C188   O190      0.67736  1_655   S
    Zr0    O190      1.56275      .   S
    C188   O191      1.12441      .   S
    N26    O191      2.20034      .   S
    C192   O193      1.01525      .   S
    Zr2    O193      1.98823      .   S
    C192   O194      1.12425      .   S
    N25    O194      2.20018      .   S
    C192   O195      0.67729  1_455   S
    Zr9    O195      1.56311      .   S
