# CIF file generated by openbabel 2.4.90, see http://openbabel.sf.net
data_I
_chemical_name_common ''
_cell_length_a 20.818
_cell_length_b 14.184
_cell_length_c 14.212
_cell_angle_alpha 105.285
_cell_angle_beta 97.023
_cell_angle_gamma 95.798
_space_group_name_H-M_alt 'P 1'
_space_group_name_Hall 'P 1'
loop_
    _symmetry_equiv_pos_as_xyz
    x,y,z
loop_
    _atom_site_label
    _atom_site_type_symbol
    _atom_site_fract_x
    _atom_site_fract_y
    _atom_site_fract_z
    _atom_site_occupancy
    Zn0     Zn   0.80551   0.24213   0.68204   1.000
    Zn1     Zn   0.44401   0.31749   0.76071   1.000
    Zn2     Zn   0.94401   0.31749   0.76071   1.000
    Zn3     Zn   0.19449   0.75789   0.31793   1.000
    Zn4     Zn   0.69449   0.75789   0.31790   1.000
    Zn5     Zn   0.05599   0.68252   0.23925   1.000
    Zn6     Zn   0.55599   0.68253   0.23925   1.000
    Zn7     Zn   0.30551   0.24213   0.68203   1.000
loop_
    _geom_bond_atom_site_label_1
    _geom_bond_atom_site_label_2
    _geom_bond_distance
    _geom_bond_site_symmetry_2
    _ccdc_geom_bond_type
    Zn7    Zn1       2.94360      .   S
    Zn0    Zn2       2.94360      .   S
    Zn3    Zn5       2.94362      .   S
    Zn4    Zn6       2.94355      .   S
