# CIF file generated by openbabel 2.4.90, see http://openbabel.sf.net
data_I
_chemical_name_common ''
_cell_length_a 20.818
_cell_length_b 14.184
_cell_length_c 14.212
_cell_angle_alpha 105.285
_cell_angle_beta 97.023
_cell_angle_gamma 95.798
_space_group_name_H-M_alt 'P 1'
_space_group_name_Hall 'P 1'
loop_
    _symmetry_equiv_pos_as_xyz
    x,y,z
loop_
    _atom_site_label
    _atom_site_type_symbol
    _atom_site_fract_x
    _atom_site_fract_y
    _atom_site_fract_z
    _atom_site_occupancy
    Zr0     Zr   0.30551   0.24213   0.68203   1.000
    Zr1     Zr   0.80551   0.24213   0.68204   1.000
    Zr2     Zr   0.44401   0.31749   0.76071   1.000
    Zr3     Zr   0.94401   0.31749   0.76071   1.000
    Zr4     Zr   0.19449   0.75789   0.31793   1.000
    Zr5     Zr   0.69449   0.75789   0.31790   1.000
    Zr6     Zr   0.05599   0.68252   0.23925   1.000
    Zr7     Zr   0.55599   0.68253   0.23925   1.000
    O8      O    0.37476   0.27981   0.72137   1.000
    O9      O    0.87476   0.27981   0.72137   1.000
    O10     O    0.12524   0.72021   0.27859   1.000
    O11     O    0.62524   0.72021   0.27857   1.000
    N12     N    0.50000   0.00001   0.49998   1.000
    O13     O    0.37065   0.89548   0.42542   1.000
    O14     O    0.62935   0.10453   0.57454   1.000
    N15     N    0.00000   0.00001   0.49998   1.000
    O16     O    0.12935   0.10453   0.57454   1.000
    O17     O    0.87065   0.89549   0.42541   1.000
    N18     N    0.25000   0.50000   0.99998   1.000
    O19     O    0.12030   0.42518   0.89663   1.000
    O20     O    0.37970   0.57484   0.10333   1.000
    N21     N    0.12685   0.69234   0.77029   1.000
    O22     O    0.09990   0.69046   0.97336   1.000
    O23     O    0.08923   0.68625   0.54034   1.000
    O24     O    0.14887   0.72766   0.57606   1.000
    O25     O    0.16200   0.71573   0.00634   1.000
    N26     N    0.87649   0.77090   0.69178   1.000
    O27     O    0.84976   0.97487   0.69003   1.000
    O28     O    0.91184   0.00641   0.71688   1.000
    O29     O    0.89792   0.57606   0.72835   1.000
    O30     O    0.83833   0.54190   0.68533   1.000
    N31     N    0.12352   0.22873   0.30817   1.000
    O32     O    0.15024   0.02496   0.30992   1.000
    O33     O    0.10209   0.42376   0.27161   1.000
    O34     O    0.16167   0.45793   0.31463   1.000
    O35     O    0.08816   0.99342   0.28308   1.000
    N36     N    0.37649   0.77090   0.69179   1.000
    O37     O    0.39792   0.57606   0.72835   1.000
    O38     O    0.41184   0.00641   0.71688   1.000
    O39     O    0.33833   0.54190   0.68533   1.000
    O40     O    0.34976   0.97487   0.69004   1.000
    N41     N    0.75000   0.50001   0.99998   1.000
    O42     O    0.87970   0.57483   0.10333   1.000
    O43     O    0.62030   0.42518   0.89663   1.000
    N44     N    0.87314   0.30766   0.22905   1.000
    O45     O    0.85114   0.27234   0.42359   1.000
    O46     O    0.90010   0.30955   0.02629   1.000
    O47     O    0.83800   0.28428   0.99331   1.000
    O48     O    0.91077   0.31375   0.45931   1.000
    N49     N    0.37314   0.30766   0.22908   1.000
    O50     O    0.41077   0.31374   0.45932   1.000
    O51     O    0.40010   0.30955   0.02631   1.000
    O52     O    0.35113   0.27234   0.42361   1.000
    O53     O    0.33800   0.28428   0.99332   1.000
    N54     N    0.62352   0.22874   0.30817   1.000
    O55     O    0.58816   0.99342   0.28308   1.000
    O56     O    0.65025   0.02496   0.30991   1.000
    O57     O    0.60209   0.42377   0.27161   1.000
    O58     O    0.66168   0.45793   0.31462   1.000
    N59     N    0.62686   0.69234   0.77029   1.000
    O60     O    0.64887   0.72767   0.57605   1.000
    O61     O    0.59990   0.69046   0.97336   1.000
    O62     O    0.58923   0.68626   0.54034   1.000
    O63     O    0.66200   0.71574   0.00633   1.000
loop_
    _geom_bond_atom_site_label_1
    _geom_bond_atom_site_label_2
    _geom_bond_distance
    _geom_bond_site_symmetry_2
    _ccdc_geom_bond_type
    Zr0    O8        1.47180      .   S
    Zr2    O8        1.47180      .   S
    Zr1    O9        1.47180      .   S
    Zr3    O9        1.47180      .   S
    Zr4    O10       1.47181      .   S
    Zr6    O10       1.47181      .   S
    Zr5    O11       1.47177      .   S
    Zr7    O11       1.47177      .   S
    N12    O13       2.87044  1_545   S
    Zr4    O13       3.89923      .   S
    N12    O14       2.87045      .   S
    Zr1    O14       3.89924      .   S
    N15    O16       2.87044      .   S
    Zr0    O16       3.89922      .   S
    N15    O17       2.87044  1_445   S
    Zr5    O17       3.89924      .   S
    N18    O19       2.86411      .   S
    Zr3    O19       3.88741  1_655   S
    N18    O20       2.86415  1_556   S
    Zr7    O20       3.88749      .   S
    N21    O22       3.01302      .   S
    Zr6    O22       4.02200  1_554   S
    N21    O23       3.24233      .   S
    Zr6    O23       4.23570      .   S
    N21    O24       3.01210      .   S
    Zr4    O24       4.01784      .   S
    N21    O25       3.26556  1_556   S
    Zr4    O25       4.26788      .   S
    N26    O27       3.00668      .   S
    Zr1    O27       4.01725  1_545   S
    N26    O28       3.26166  1_565   S
    Zr3    O28       4.26123      .   S
    N26    O29       3.00931      .   S
    Zr3    O29       4.00943      .   S
    N26    O30       3.23943      .   S
    Zr1    O30       4.22471      .   S
    N31    O32       3.00398      .   S
    Zr4    O32       4.01469  1_565   S
    N31    O33       3.01196      .   S
    Zr6    O33       4.01206      .   S
    N31    O34       3.24204      .   S
    Zr4    O34       4.22736      .   S
    N31    O35       3.25904  1_545   S
    Zr6    O35       4.25854      .   S
    N36    O37       3.00930      .   S
    Zr2    O37       4.00942      .   S
    N36    O38       3.26167  1_565   S
    Zr2    O38       4.26123      .   S
    N36    O39       3.23942      .   S
    Zr0    O39       4.22468      .   S
    N36    O40       3.00665      .   S
    Zr0    O40       4.01733  1_545   S
    N41    O42       2.86412  1_556   S
    Zr6    O42       3.88743  1_455   S
    N41    O43       2.86413      .   S
    Zr2    O43       3.88746      .   S
    N44    O45       3.01650      .   S
    Zr1    O45       4.02217      .   S
    N44    O46       3.00868      .   S
    Zr3    O46       4.01769  1_556   S
    N44    O47       3.26121  1_554   S
    Zr1    O47       4.26341      .   S
    N44    O48       3.24663      .   S
    Zr3    O48       4.24007      .   S
    N49    O50       3.24637      .   S
    Zr2    O50       4.23980      .   S
    N49    O51       3.00895      .   S
    Zr2    O51       4.01795  1_556   S
    N49    O52       3.01620      .   S
    Zr0    O52       4.02180      .   S
    N49    O53       3.26150  1_554   S
    Zr0    O53       4.26377      .   S
    N54    O55       3.25903  1_545   S
    Zr7    O55       4.25854      .   S
    N54    O56       3.00395      .   S
    Zr5    O56       4.01464  1_565   S
    N54    O57       3.01196      .   S
    Zr7    O57       4.01206      .   S
    N54    O58       3.24207      .   S
    Zr5    O58       4.22744      .   S
    N59    O60       3.01223      .   S
    Zr5    O60       4.01814      .   S
    N59    O61       3.01301      .   S
    Zr7    O61       4.02198  1_554   S
    N59    O62       3.24235      .   S
    Zr7    O62       4.23570      .   S
    N59    O63       3.26544  1_556   S
    Zr5    O63       4.26754      .   S
