# CIF file generated by openbabel 2.4.90, see http://openbabel.sf.net
data_I
_chemical_name_common ''
_cell_length_a 17.236
_cell_length_b 16.946
_cell_length_c 17.853
_cell_angle_alpha 89.935
_cell_angle_beta 90.001
_cell_angle_gamma 89.182
_space_group_name_H-M_alt 'P 1'
_space_group_name_Hall 'P 1'
loop_
    _symmetry_equiv_pos_as_xyz
    x,y,z
loop_
    _atom_site_label
    _atom_site_type_symbol
    _atom_site_fract_x
    _atom_site_fract_y
    _atom_site_fract_z
    _atom_site_occupancy
    N0      N    0.74496   0.52981   0.11156   1.000
    N1      N    0.74315   0.47163   0.61055   1.000
    N2      N    0.01673   0.18536   0.50935   1.000
    N3      N    0.25686   0.52839   0.38944   1.000
    N4      N    0.51492   0.31272   0.48889   1.000
    N5      N    0.48481   0.68684   0.51122   1.000
    N6      N    0.75497   0.97080   0.61175   1.000
    N7      N    0.48325   0.31463   0.00945   1.000
    N8      N    0.75677   0.02856   0.11055   1.000
    N9      N    0.24324   0.97142   0.88939   1.000
    N10     N    0.98315   0.81472   0.49061   1.000
    N11     N    0.24500   0.02904   0.38821   1.000
    N12     N    0.01494   0.81286   0.01113   1.000
    N13     N    0.25500   0.47020   0.88841   1.000
    N14     N    0.98507   0.18716   0.98632   1.000
    N15     N    0.51676   0.68538   0.98801   1.000
    Zr16    Zr   0.26287   0.88289   0.62700   1.000
    O17     O    0.18056   0.85966   0.58913   1.000
    O18     O    0.33022   0.82640   0.59615   1.000
    O19     O    0.25603   0.91135   0.70519   1.000
    O20     O    0.25914   0.92999   0.55688   1.000
    Zr21    Zr   0.23376   0.38005   0.62762   1.000
    O22     O    0.24083   0.40913   0.70522   1.000
    O23     O    0.23888   0.42783   0.55755   1.000
    O24     O    0.16774   0.32418   0.59578   1.000
    O25     O    0.31658   0.35697   0.58898   1.000
    Zr26    Zr   0.76299   0.38314   0.87221   1.000
    O27     O    0.68067   0.35980   0.91039   1.000
    O28     O    0.75913   0.43041   0.94256   1.000
    O29     O    0.83049   0.32690   0.90295   1.000
    O30     O    0.75608   0.41160   0.79430   1.000
    Zr31    Zr   0.73696   0.11712   0.37208   1.000
    O32     O    0.74076   0.06996   0.44253   1.000
    O33     O    0.74386   0.08865   0.29421   1.000
    O34     O    0.81929   0.14036   0.41028   1.000
    O35     O    0.66952   0.17341   0.40328   1.000
    Zr36    Zr   0.76617   0.62000   0.37241   1.000
    O37     O    0.83217   0.67588   0.40423   1.000
    O38     O    0.75910   0.59091   0.29480   1.000
    O39     O    0.68328   0.64294   0.41101   1.000
    O40     O    0.76109   0.57222   0.44247   1.000
    Zr41    Zr   0.73383   0.88025   0.87256   1.000
    O42     O    0.66781   0.82432   0.90366   1.000
    O43     O    0.74087   0.90951   0.79498   1.000
    O44     O    0.73884   0.92800   0.94259   1.000
    O45     O    0.81669   0.85725   0.91106   1.000
    Zr46    Zr   0.23702   0.61688   0.12777   1.000
    O47     O    0.31933   0.64022   0.08896   1.000
    O48     O    0.24392   0.58842   0.20568   1.000
    O49     O    0.16952   0.67313   0.09639   1.000
    O50     O    0.24086   0.56961   0.05742   1.000
    Zr51    Zr   0.26617   0.11977   0.12743   1.000
    O52     O    0.33220   0.17569   0.09569   1.000
    O53     O    0.18332   0.14276   0.08829   1.000
    O54     O    0.26116   0.07200   0.05739   1.000
    O55     O    0.25912   0.09046   0.20501   1.000
loop_
    _geom_bond_atom_site_label_1
    _geom_bond_atom_site_label_2
    _geom_bond_distance
    _geom_bond_site_symmetry_2
    _ccdc_geom_bond_type
    Zr16   O17       1.62526      .   S
    N10    O17       3.91502  1_655   S
    Zr16   O18       1.59267      .   S
    N5     O18       3.84969      .   S
    Zr16   O19       1.48161      .   S
    N9     O19       3.44964      .   S
    Zr16   O20       1.48488      .   S
    N11    O20       3.45266  1_545   S
    Zr21   O22       1.47653      .   S
    N13    O22       3.44124      .   S
    Zr21   O23       1.49262      .   S
    N3     O23       3.46578      .   S
    Zr21   O24       1.59577      .   S
    N2     O24       3.85646      .   S
    Zr21   O25       1.62826      .   S
    N4     O25       3.92078      .   S
    Zr26   O27       1.62781      .   S
    N7     O27       3.91972  1_554   S
    Zr26   O28       1.49136      .   S
    N0     O28       3.46409  1_554   S
    Zr26   O29       1.59067      .   S
    N14    O29       3.83835      .   S
    Zr26   O30       1.47584      .   S
    N1     O30       3.43984      .   S
    Zr31   O32       1.49033      .   S
    N6     O32       3.46222  1_565   S
    Zr31   O33       1.47625      .   S
    N8     O33       3.44074      .   S
    Zr31   O34       1.62802      .   S
    N2     O34       3.92014  1_455   S
    Zr31   O35       1.59415      .   S
    N4     O35       3.85199      .   S
    Zr36   O37       1.59557      .   S
    N10    O37       3.85592      .   S
    Zr36   O38       1.47684      .   S
    N0     O38       3.44209      .   S
    Zr36   O39       1.62843      .   S
    N5     O39       3.92265      .   S
    Zr36   O40       1.49245      .   S
    N1     O40       3.46540      .   S
    Zr41   O42       1.59100      .   S
    N15    O42       3.84134      .   S
    Zr41   O43       1.47625      .   S
    N6     O43       3.44062      .   S
    Zr41   O44       1.49319      .   S
    N8     O44       3.46665  1_544   S
    Zr41   O45       1.62707      .   S
    N12    O45       3.91886  1_454   S
    Zr46   O47       1.63253      .   S
    N15    O47       3.93498  1_556   S
    Zr46   O48       1.47587      .   S
    N3     O48       3.43991      .   S
    Zr46   O49       1.59457      .   S
    N12    O49       3.85153      .   S
    Zr46   O50       1.49137      .   S
    N13    O50       3.46431  1_556   S
    Zr51   O52       1.59497      .   S
    N7     O52       3.85469      .   S
    Zr51   O53       1.63188      .   S
    N14    O53       3.93443  1_656   S
    Zr51   O54       1.49351      .   S
    N9     O54       3.46740  1_566   S
    Zr51   O55       1.47639      .   S
    N11    O55       3.44085      .   S
