# CIF file generated by openbabel 2.4.90, see http://openbabel.sf.net
data_I
_chemical_name_common ''
_cell_length_a 19.518
_cell_length_b 19.551
_cell_length_c 19.542
_cell_angle_alpha 72.051
_cell_angle_beta 71.978
_cell_angle_gamma 71.943
_space_group_name_H-M_alt 'P 1'
_space_group_name_Hall 'P 1'
loop_
    _symmetry_equiv_pos_as_xyz
    x,y,z
loop_
    _atom_site_label
    _atom_site_type_symbol
    _atom_site_fract_x
    _atom_site_fract_y
    _atom_site_fract_z
    _atom_site_occupancy
    Zn0     Zn   0.64315   0.21476   0.87635   1.000
    Zn1     Zn   0.98131   0.54925   0.31692   1.000
    Zn2     Zn   0.87689   0.64316   0.21300   1.000
    Zn3     Zn   0.31645   0.97755   0.55034   1.000
    Zn4     Zn   0.21172   0.87505   0.64435   1.000
    Zn5     Zn   0.81602   0.04866   0.48102   1.000
    Zn6     Zn   0.71224   0.14243   0.37717   1.000
    Zn7     Zn   0.04964   0.47744   0.81788   1.000
    Zn8     Zn   0.14485   0.37443   0.71289   1.000
    Zn9     Zn   0.48188   0.81704   0.04940   1.000
    Zn10    Zn   0.37657   0.71483   0.14359   1.000
    Zn11    Zn   0.54822   0.31750   0.98144   1.000
