# CIF file generated by openbabel 2.4.90, see http://openbabel.sf.net
data_I
_chemical_name_common ''
_cell_length_a 19.518
_cell_length_b 19.551
_cell_length_c 19.542
_cell_angle_alpha 72.051
_cell_angle_beta 71.978
_cell_angle_gamma 71.943
_space_group_name_H-M_alt 'P 1'
_space_group_name_Hall 'P 1'
loop_
    _symmetry_equiv_pos_as_xyz
    x,y,z
loop_
    _atom_site_label
    _atom_site_type_symbol
    _atom_site_fract_x
    _atom_site_fract_y
    _atom_site_fract_z
    _atom_site_occupancy
    N0      N    0.68493   0.68357   0.68510   1.000
    N1      N    0.00815   0.00832   0.00900   1.000
    N2      N    0.18455   0.18378   0.18518   1.000
    N3      N    0.50839   0.50819   0.50894   1.000
    Zr4     Zr   0.64315   0.21476   0.87635   1.000
    O5      O    0.51869   0.20078   0.96179   1.000
    O6      O    0.74285   0.16214   0.91683   1.000
    Zr7     Zr   0.71224   0.14243   0.37717   1.000
    O8      O    0.66026   0.24236   0.41737   1.000
    O9      O    0.69928   0.01783   0.46234   1.000
    Zr10    Zr   0.98131   0.54925   0.31692   1.000
    O11     O    0.03306   0.44939   0.27676   1.000
    O12     O    0.99412   0.67389   0.23172   1.000
    Zr13    Zr   0.48188   0.81704   0.04940   1.000
    O14     O    0.53359   0.77643   0.94985   1.000
    O15     O    0.49458   0.73158   0.17418   1.000
    Zr16    Zr   0.14485   0.37443   0.71289   1.000
    O17     O    0.24415   0.41516   0.66100   1.000
    O18     O    0.02002   0.46000   0.69979   1.000
    Zr19    Zr   0.54822   0.31750   0.98144   1.000
    O20     O    0.67304   0.23191   0.99448   1.000
    O21     O    0.44886   0.27680   0.03329   1.000
    Zr22    Zr   0.31645   0.97755   0.55034   1.000
    O23     O    0.27623   0.03014   0.45054   1.000
    O24     O    0.23111   0.99147   0.67481   1.000
    Zr25    Zr   0.81602   0.04866   0.48102   1.000
    O26     O    0.73087   0.17338   0.49417   1.000
    O27     O    0.77605   0.94887   0.53302   1.000
    Zr28    Zr   0.21172   0.87505   0.64435   1.000
    O29     O    0.19881   0.96048   0.51970   1.000
    O30     O    0.15986   0.91560   0.74401   1.000
    Zr31    Zr   0.87689   0.64316   0.21300   1.000
    O32     O    0.91692   0.74296   0.16108   1.000
    O33     O    0.96209   0.51849   0.19992   1.000
    Zr34    Zr   0.04964   0.47744   0.81788   1.000
    O35     O    0.17415   0.49136   0.73243   1.000
    O36     O    0.95003   0.52995   0.77737   1.000
    Zr37    Zr   0.37657   0.71483   0.14359   1.000
    O38     O    0.41676   0.66214   0.24345   1.000
    O39     O    0.46193   0.70077   0.01918   1.000
    O40     O    0.40400   0.92044   0.08313   1.000
    O41     O    0.42032   0.90058   0.58377   1.000
    O42     O    0.58222   0.42072   0.90382   1.000
    O43     O    0.90368   0.58256   0.42070   1.000
    O44     O    0.91989   0.08222   0.40349   1.000
    O45     O    0.11084   0.27120   0.79045   1.000
    O46     O    0.28940   0.77162   0.61072   1.000
    O47     O    0.78971   0.10919   0.27339   1.000
    O48     O    0.60975   0.29152   0.77276   1.000
    O49     O    0.77303   0.60965   0.29059   1.000
    O50     O    0.08308   0.40060   0.92144   1.000
    O51     O    0.27272   0.79164   0.11021   1.000
loop_
    _geom_bond_atom_site_label_1
    _geom_bond_atom_site_label_2
    _geom_bond_distance
    _geom_bond_site_symmetry_2
    _ccdc_geom_bond_type
    Zr4    O5        2.52659      .   S
    N2     O5        6.67337  1_554   S
    Zr4    O6        2.16352      .   S
    N1     O6        5.64631  1_454   S
    Zr7    O8        2.16509      .   S
    N3     O8        5.64792      .   S
    Zr7    O9        2.52795      .   S
    N0     O9        6.67715  1_565   S
    Zr10   O11       2.16316  1_655   S
    N2     O11       5.64321      .   S
    Zr10   O12       2.52839      .   S
    N1     O12       6.67839  1_445   S
    Zr13   O14       2.16196  1_554   S
    N0     O14       5.63891      .   S
    Zr13   O15       2.53092      .   S
    N3     O15       6.68539      .   S
    Zr16   O17       2.15907      .   S
    N3     O17       5.63368      .   S
    Zr16   O18       2.52890      .   S
    N0     O18       6.68061  1_655   S
    Zr19   O20       2.52877      .   S
    N1     O20       6.68052  1_454   S
    Zr19   O21       2.15976  1_556   S
    N2     O21       5.63419      .   S
    Zr22   O23       2.16526  1_565   S
    N2     O23       5.65016      .   S
    Zr22   O24       2.52683      .   S
    N1     O24       6.67451  1_544   S
    Zr25   O26       2.52668      .   S
    N3     O26       6.67490      .   S
    Zr25   O27       2.16311  1_545   S
    N0     O27       5.64321      .   S
    Zr28   O29       2.52953      .   S
    N2     O29       6.68234  1_545   S
    Zr28   O30       2.16342      .   S
    N1     O30       5.64269  1_544   S
    Zr31   O32       2.16367      .   S
    N1     O32       5.64508  1_445   S
    Zr31   O33       2.52576      .   S
    N2     O33       6.67327  1_455   S
    Zr34   O35       2.52725      .   S
    N3     O35       6.67505      .   S
    Zr34   O36       2.16213  1_455   S
    N0     O36       5.64324      .   S
    Zr37   O38       2.16611      .   S
    N3     O38       5.65280      .   S
    Zr37   O39       2.52670      .   S
    N0     O39       6.67395  1_556   S
    Zr13   O40       2.26458      .   S
    N2     O40       6.01686  1_545   S
    N0     O41       6.01341      .   S
    Zr22   O41       2.26354      .   S
    N0     O42       6.02024      .   S
    Zr19   O42       2.26594      .   S
    N0     O43       6.01982      .   S
    Zr10   O43       2.26579      .   S
    Zr25   O44       2.26881      .   S
    N2     O44       6.02735  1_455   S
    Zr16   O45       2.26576      .   S
    N1     O45       6.01952  1_554   S
    Zr28   O46       2.26314      .   S
    N3     O46       6.01309      .   S
    Zr7    O47       2.26436      .   S
    N1     O47       6.01664  1_455   S
    Zr4    O48       2.26118      .   S
    N3     O48       6.00779      .   S
    Zr31   O49       2.26874      .   S
    N3     O49       6.02654      .   S
    N2     O50       6.00841  1_554   S
    Zr34   O50       2.26146      .   S
    Zr37   O51       2.26204      .   S
    N1     O51       6.00973  1_545   S
