# CIF file generated by openbabel 2.4.90, see http://openbabel.sf.net
data_I
_chemical_name_common ''
_cell_length_a 19.518
_cell_length_b 19.551
_cell_length_c 19.542
_cell_angle_alpha 72.051
_cell_angle_beta 71.978
_cell_angle_gamma 71.943
_space_group_name_H-M_alt 'P 1'
_space_group_name_Hall 'P 1'
loop_
    _symmetry_equiv_pos_as_xyz
    x,y,z
loop_
    _atom_site_label
    _atom_site_type_symbol
    _atom_site_fract_x
    _atom_site_fract_y
    _atom_site_fract_z
    _atom_site_occupancy
    N0      N    0.68493   0.68357   0.68510   1.000
    N1      N    0.00815   0.00832   0.00900   1.000
    N2      N    0.18455   0.18378   0.18518   1.000
    N3      N    0.50839   0.50819   0.50894   1.000
    Zr4     Zr   0.64315   0.21476   0.87635   1.000
    O5      O    0.60511   0.29833   0.77368   1.000
    O6      O    0.61439   0.28471   0.77184   1.000
    O7      O    0.51869   0.20078   0.96179   1.000
    O8      O    0.74285   0.16214   0.91683   1.000
    Zr9     Zr   0.71224   0.14243   0.37717   1.000
    O10     O    0.66026   0.24236   0.41737   1.000
    O11     O    0.79653   0.10454   0.27432   1.000
    O12     O    0.78290   0.11384   0.27246   1.000
    O13     O    0.69928   0.01783   0.46234   1.000
    Zr14    Zr   0.98131   0.54925   0.31692   1.000
    O15     O    0.03306   0.44939   0.27676   1.000
    O16     O    0.99412   0.67389   0.23172   1.000
    O17     O    0.89688   0.58723   0.41975   1.000
    O18     O    0.91048   0.57789   0.42165   1.000
    Zr19    Zr   0.48188   0.81704   0.04940   1.000
    O20     O    0.41080   0.92141   0.07850   1.000
    O21     O    0.39719   0.91948   0.08777   1.000
    O22     O    0.53359   0.77643   0.94985   1.000
    O23     O    0.49458   0.73158   0.17418   1.000
    Zr24    Zr   0.14485   0.37443   0.71289   1.000
    O25     O    0.24415   0.41516   0.66100   1.000
    O26     O    0.10615   0.27220   0.79722   1.000
    O27     O    0.11553   0.27020   0.78367   1.000
    O28     O    0.02002   0.46000   0.69979   1.000
    Zr29    Zr   0.54822   0.31750   0.98144   1.000
    O30     O    0.67304   0.23191   0.99448   1.000
    O31     O    0.44886   0.27680   0.03329   1.000
    O32     O    0.58689   0.41972   0.89705   1.000
    O33     O    0.57754   0.42172   0.91059   1.000
    Zr34    Zr   0.31645   0.97755   0.55034   1.000
    O35     O    0.27623   0.03014   0.45054   1.000
    O36     O    0.23111   0.99147   0.67481   1.000
    O37     O    0.41938   0.89380   0.58843   1.000
    O38     O    0.42126   0.90737   0.57911   1.000
    Zr39    Zr   0.81602   0.04866   0.48102   1.000
    O40     O    0.73087   0.17338   0.49417   1.000
    O41     O    0.91891   0.08689   0.39672   1.000
    O42     O    0.92088   0.07754   0.41027   1.000
    O43     O    0.77605   0.94887   0.53302   1.000
    Zr44    Zr   0.21172   0.87505   0.64435   1.000
    O45     O    0.19881   0.96048   0.51970   1.000
    O46     O    0.29619   0.77258   0.60604   1.000
    O47     O    0.28261   0.77066   0.61539   1.000
    O48     O    0.15986   0.91560   0.74401   1.000
    Zr49    Zr   0.87689   0.64316   0.21300   1.000
    O50     O    0.77400   0.60497   0.29736   1.000
    O51     O    0.91692   0.74296   0.16108   1.000
    O52     O    0.96209   0.51849   0.19992   1.000
    O53     O    0.77205   0.61433   0.28382   1.000
    Zr54    Zr   0.04964   0.47744   0.81788   1.000
    O55     O    0.07840   0.40739   0.92238   1.000
    O56     O    0.08776   0.39381   0.92050   1.000
    O57     O    0.17415   0.49136   0.73243   1.000
    O58     O    0.95003   0.52995   0.77737   1.000
    Zr59    Zr   0.37657   0.71483   0.14359   1.000
    O60     O    0.27365   0.79841   0.10552   1.000
    O61     O    0.27178   0.78487   0.11490   1.000
    O62     O    0.41676   0.66214   0.24345   1.000
    O63     O    0.46193   0.70077   0.01918   1.000
loop_
    _geom_bond_atom_site_label_1
    _geom_bond_atom_site_label_2
    _geom_bond_distance
    _geom_bond_site_symmetry_2
    _ccdc_geom_bond_type
    Zr4    O5        2.32286      .   S
    N3     O5        5.94326      .   S
    Zr4    O6        2.20651      .   S
    N3     O6        6.07480      .   S
    Zr4    O7        2.52659      .   S
    N2     O7        6.67337  1_554   S
    Zr4    O8        2.16352      .   S
    N1     O8        5.64631  1_454   S
    Zr9    O10       2.16509      .   S
    N3     O10       5.64792      .   S
    Zr9    O11       2.32609      .   S
    N1     O11       5.95211  1_455   S
    Zr9    O12       2.20963      .   S
    N1     O12       6.08365  1_455   S
    Zr9    O13       2.52795      .   S
    N0     O13       6.67715  1_565   S
    Zr14   O15       2.16316  1_655   S
    N2     O15       5.64321      .   S
    Zr14   O16       2.52839      .   S
    N1     O16       6.67839  1_445   S
    Zr14   O17       2.32751      .   S
    N0     O17       5.95533      .   S
    Zr14   O18       2.21106      .   S
    N0     O18       6.08679      .   S
    Zr19   O20       2.20988      .   S
    N2     O20       6.08383  1_545   S
    Zr19   O21       2.32629      .   S
    N2     O21       5.95238  1_545   S
    Zr19   O22       2.16196  1_554   S
    N0     O22       5.63891      .   S
    Zr19   O23       2.53092      .   S
    N3     O23       6.68539      .   S
    Zr24   O25       2.15907      .   S
    N3     O25       5.63368      .   S
    Zr24   O26       2.32737      .   S
    N1     O26       5.95515  1_554   S
    Zr24   O27       2.21115      .   S
    N1     O27       6.08638  1_554   S
    Zr24   O28       2.52890      .   S
    N0     O28       6.68061  1_655   S
    Zr29   O30       2.52877      .   S
    N1     O30       6.68052  1_454   S
    Zr29   O31       2.15976  1_556   S
    N2     O31       5.63419      .   S
    Zr29   O32       2.32750      .   S
    N0     O32       5.95591      .   S
    Zr29   O33       2.21138      .   S
    N0     O33       6.08705      .   S
    Zr34   O35       2.16526  1_565   S
    N2     O35       5.65016      .   S
    Zr34   O36       2.52683      .   S
    N1     O36       6.67451  1_544   S
    Zr34   O37       2.32507      .   S
    N0     O37       5.94910      .   S
    Zr34   O38       2.20902      .   S
    N0     O38       6.08021      .   S
    Zr39   O40       2.52668      .   S
    N3     O40       6.67490      .   S
    Zr39   O41       2.33026      .   S
    N2     O41       5.96320  1_455   S
    Zr39   O42       2.21437      .   S
    N2     O42       6.09399  1_455   S
    Zr39   O43       2.16311  1_545   S
    N0     O43       5.64321      .   S
    Zr44   O45       2.52953      .   S
    N2     O45       6.68234  1_545   S
    Zr44   O46       2.32491      .   S
    N3     O46       5.94850      .   S
    Zr44   O47       2.20837      .   S
    N3     O47       6.08016      .   S
    Zr44   O48       2.16342      .   S
    N1     O48       5.64269  1_544   S
    Zr49   O50       2.33040      .   S
    N3     O50       5.96220      .   S
    Zr49   O51       2.16367      .   S
    N1     O51       5.64508  1_445   S
    Zr49   O52       2.52576      .   S
    N2     O52       6.67327  1_455   S
    Zr49   O53       2.21408      .   S
    N3     O53       6.09335      .   S
    Zr54   O55       2.20678      .   S
    N2     O55       6.07542  1_554   S
    Zr54   O56       2.32314      .   S
    N2     O56       5.94388  1_554   S
    Zr54   O57       2.52725      .   S
    N3     O57       6.67505      .   S
    Zr54   O58       2.16213  1_455   S
    N0     O58       5.64324      .   S
    Zr59   O60       2.32367      .   S
    N1     O60       5.94527  1_545   S
    Zr59   O61       2.20741      .   S
    N1     O61       6.07667  1_545   S
    Zr59   O62       2.16611      .   S
    N3     O62       5.65280      .   S
    Zr59   O63       2.52670      .   S
    N0     O63       6.67395  1_556   S
