# CIF file generated by openbabel 2.4.90, see http://openbabel.sf.net
data_I
_chemical_name_common ''
_cell_length_a 18.426
_cell_length_b 18.432
_cell_length_c 18.431
_cell_angle_alpha 60.143
_cell_angle_beta 60.16
_cell_angle_gamma 60.158
_space_group_name_H-M_alt 'P 1'
_space_group_name_Hall 'P 1'
loop_
    _symmetry_equiv_pos_as_xyz
    x,y,z
loop_
    _atom_site_label
    _atom_site_type_symbol
    _atom_site_fract_x
    _atom_site_fract_y
    _atom_site_fract_z
    _atom_site_occupancy
    N0      N    0.50000   0.99998   0.00000   1.000
    N1      N    1.00000   0.49998   0.50000   1.000
    N2      N    0.00000   0.99998   0.50001   1.000
    N3      N    0.50000   0.49998   0.00001   1.000
    N4      N    0.50000   0.99998   0.49998   1.000
    N5      N    1.00000   0.49998   0.00000   1.000
    Zr6     Zr   0.74998   0.74995   0.74999   1.000
    Zr7     Zr   0.25001   0.25001   0.25002   1.000
    O8      O    0.83255   0.66744   0.83255   1.000
    O9      O    0.66742   0.66740   0.83250   1.000
    O10     O    0.66742   0.83246   0.66743   1.000
    O11     O    0.66746   0.83252   0.83256   1.000
    O12     O    0.83250   0.66739   0.66743   1.000
    O13     O    0.83255   0.83251   0.66748   1.000
    O14     O    0.16745   0.33252   0.16746   1.000
    O15     O    0.33257   0.33256   0.16751   1.000
    O16     O    0.33257   0.16750   0.33256   1.000
    O17     O    0.33254   0.16744   0.16745   1.000
    O18     O    0.16750   0.33257   0.33258   1.000
    O19     O    0.16745   0.16745   0.33253   1.000
loop_
    _geom_bond_atom_site_label_1
    _geom_bond_atom_site_label_2
    _geom_bond_distance
    _geom_bond_site_symmetry_2
    _ccdc_geom_bond_type
    Zr6    O8        2.15395      .   S
    N5     O8        4.36875  1_554   S
    Zr6    O9        2.15395      .   S
    N3     O9        4.36827  1_554   S
    Zr6    O10       2.15398      .   S
    N4     O10       4.36844      .   S
    Zr6    O11       2.15510      .   S
    N0     O11       4.37053  1_554   S
    Zr6    O12       2.15494      .   S
    N1     O12       4.36973      .   S
    Zr6    O13       2.15416      .   S
    N2     O13       4.36919  1_455   S
    N5     O14       4.36885  1_655   S
    Zr7    O14       2.15399      .   S
    Zr7    O15       2.15394      .   S
    N3     O15       4.36827      .   S
    Zr7    O16       2.15370      .   S
    N4     O16       4.36796  1_565   S
    Zr7    O17       2.15512      .   S
    N0     O17       4.37059  1_565   S
    Zr7    O18       2.15490      .   S
    N1     O18       4.36962  1_655   S
    Zr7    O19       2.15415      .   S
    N2     O19       4.36918  1_565   S
