# CIF file generated by openbabel 2.4.90, see http://openbabel.sf.net
data_I
_chemical_name_common ''
_cell_length_a 18.426
_cell_length_b 18.432
_cell_length_c 18.431
_cell_angle_alpha 60.143
_cell_angle_beta 60.16
_cell_angle_gamma 60.158
_space_group_name_H-M_alt 'P 1'
_space_group_name_Hall 'P 1'
loop_
    _symmetry_equiv_pos_as_xyz
    x,y,z
loop_
    _atom_site_label
    _atom_site_type_symbol
    _atom_site_fract_x
    _atom_site_fract_y
    _atom_site_fract_z
    _atom_site_occupancy
    N0      N    0.50000   0.99998   0.00000   1.000
    N1      N    1.00000   0.49998   0.50000   1.000
    N2      N    0.00000   0.99998   0.50001   1.000
    N3      N    0.50000   0.49998   0.00001   1.000
    N4      N    0.50000   0.99998   0.49998   1.000
    N5      N    1.00000   0.49998   0.00000   1.000
    Zr6     Zr   0.74998   0.74995   0.74999   1.000
    O7      O    0.83250   0.68596   0.64886   1.000
    O8      O    0.68600   0.83246   0.64886   1.000
    O9      O    0.83252   0.83247   0.64888   1.000
    O10     O    0.83250   0.64882   0.68599   1.000
    O11     O    0.68600   0.64883   0.83249   1.000
    O12     O    0.83251   0.64885   0.83251   1.000
    O13     O    0.83258   0.68603   0.83259   1.000
    O14     O    0.68606   0.83256   0.83259   1.000
    O15     O    0.83258   0.83255   0.68607   1.000
    O16     O    0.64885   0.68597   0.83251   1.000
    O17     O    0.64885   0.83247   0.68600   1.000
    O18     O    0.64886   0.83249   0.83253   1.000
    Zr19    Zr   0.25001   0.25001   0.25002   1.000
    O20     O    0.16750   0.35114   0.31401   1.000
    O21     O    0.31400   0.35113   0.16752   1.000
    O22     O    0.16748   0.35111   0.16750   1.000
    O23     O    0.16749   0.31400   0.35115   1.000
    O24     O    0.31400   0.16750   0.35114   1.000
    O25     O    0.16748   0.16749   0.35113   1.000
    O26     O    0.35114   0.16747   0.16748   1.000
    O27     O    0.35115   0.31399   0.16750   1.000
    O28     O    0.35115   0.16749   0.31398   1.000
    O29     O    0.31394   0.16740   0.16741   1.000
    O30     O    0.16742   0.31392   0.16742   1.000
    O31     O    0.16742   0.16740   0.31394   1.000
loop_
    _geom_bond_atom_site_label_1
    _geom_bond_atom_site_label_2
    _geom_bond_distance
    _geom_bond_site_symmetry_2
    _ccdc_geom_bond_type
    Zr6    O7        2.18207      .   S
    N1     O7        4.38317      .   S
    Zr6    O8        2.18112      .   S
    N4     O8        4.38191      .   S
    Zr6    O9        2.18138      .   S
    N2     O9        4.38250  1_455   S
    Zr6    O10       2.18207      .   S
    N1     O10       4.38318      .   S
    Zr6    O11       2.18109      .   S
    N3     O11       4.38173  1_554   S
    Zr6    O12       2.18119      .   S
    N5     O12       4.38204  1_554   S
    Zr6    O13       2.18113      .   S
    N5     O13       4.38242  1_554   S
    Zr6    O14       2.18224      .   S
    N0     O14       4.38418  1_554   S
    Zr6    O15       2.18134      .   S
    N2     O15       4.38285  1_455   S
    Zr6    O16       2.18112      .   S
    N3     O16       4.38172  1_554   S
    Zr6    O17       2.18116      .   S
    N4     O17       4.38188      .   S
    Zr6    O18       2.18232      .   S
    N0     O18       4.38381  1_554   S
    Zr19   O20       2.18203      .   S
    N1     O20       4.38306  1_655   S
    Zr19   O21       2.18109      .   S
    N3     O21       4.38173      .   S
    Zr19   O22       2.18122      .   S
    N5     O22       4.38215  1_655   S
    Zr19   O23       2.18203      .   S
    N1     O23       4.38306  1_655   S
    Zr19   O24       2.18091      .   S
    N4     O24       4.38137  1_565   S
    Zr19   O25       2.18138      .   S
    N2     O25       4.38248  1_565   S
    Zr19   O26       2.18233      .   S
    N0     O26       4.38387  1_565   S
    Zr19   O27       2.18112      .   S
    N3     O27       4.38172      .   S
    Zr19   O28       2.18084      .   S
    N4     O28       4.38147  1_565   S
    Zr19   O29       2.18226      .   S
    N0     O29       4.38423  1_565   S
    Zr19   O30       2.18117      .   S
    N5     O30       4.38251  1_655   S
    Zr19   O31       2.18133      .   S
    N2     O31       4.38283  1_565   S
