# CIF file generated by openbabel 2.4.90, see http://openbabel.sf.net
data_I
_chemical_name_common ''
_cell_length_a 18.423
_cell_length_b 18.43
_cell_length_c 18.43
_cell_angle_alpha 60.187
_cell_angle_beta 60.175
_cell_angle_gamma 60.177
_space_group_name_H-M_alt 'P 1'
_space_group_name_Hall 'P 1'
loop_
    _symmetry_equiv_pos_as_xyz
    x,y,z
loop_
    _atom_site_label
    _atom_site_type_symbol
    _atom_site_fract_x
    _atom_site_fract_y
    _atom_site_fract_z
    _atom_site_occupancy
    N0      N    0.50001   1.00000   0.99997   1.000
    N1      N    0.00001   0.50000   0.49992   1.000
    N2      N    0.00001   1.00000   0.49998   1.000
    N3      N    0.50001   0.50000   0.99998   1.000
    N4      N    0.50001   1.00000   0.49999   1.000
    N5      N    0.00001   0.50000   0.99998   1.000
    Zr6     Zr   0.74999   0.74996   0.74994   1.000
    Zr7     Zr   0.25002   0.25003   0.25003   1.000
    O8      O    0.83251   0.66741   0.66738   1.000
    O9      O    0.16750   0.33258   0.33256   1.000
    O10     O    0.66743   0.66741   0.83246   1.000
    O11     O    0.33259   0.33258   0.16750   1.000
    O12     O    0.66743   0.83248   0.66739   1.000
    O13     O    0.33259   0.16751   0.33257   1.000
    O14     O    0.83256   0.66744   0.83251   1.000
    O15     O    0.66747   0.83253   0.83250   1.000
    O16     O    0.83257   0.83252   0.66742   1.000
    O17     O    0.16745   0.33255   0.16746   1.000
    O18     O    0.33254   0.16747   0.16744   1.000
    O19     O    0.16745   0.16747   0.33254   1.000
loop_
    _geom_bond_atom_site_label_1
    _geom_bond_atom_site_label_2
    _geom_bond_distance
    _geom_bond_site_symmetry_2
    _ccdc_geom_bond_type
    N1     O8        4.36950  1_455   S
    Zr6    O8        2.15441      .   S
    N1     O9        4.36825      .   S
    Zr7    O9        2.15400      .   S
    N3     O10       4.36884      .   S
    Zr6    O10       2.15436      .   S
    N3     O11       4.36884  1_556   S
    Zr7    O11       2.15436      .   S
    N4     O12       4.36891      .   S
    Zr6    O12       2.15441      .   S
    N4     O13       4.36892  1_565   S
    Zr7    O13       2.15442      .   S
    Zr6    O14       2.15475      .   S
    N5     O14       4.37002  1_455   S
    Zr6    O15       2.15463      .   S
    N0     O15       4.37030      .   S
    Zr6    O16       2.15466      .   S
    N2     O16       4.36988  1_455   S
    N5     O17       4.37006  1_556   S
    Zr7    O17       2.15477      .   S
    N0     O18       4.37044  1_566   S
    Zr7    O18       2.15490      .   S
    N2     O19       4.36987  1_565   S
    Zr7    O19       2.15466      .   S
