# CIF file generated by openbabel 2.4.90, see http://openbabel.sf.net
data_I
_chemical_name_common ''
_cell_length_a 18.423
_cell_length_b 18.43
_cell_length_c 18.43
_cell_angle_alpha 60.187
_cell_angle_beta 60.175
_cell_angle_gamma 60.177
_space_group_name_H-M_alt 'P 1'
_space_group_name_Hall 'P 1'
loop_
    _symmetry_equiv_pos_as_xyz
    x,y,z
loop_
    _atom_site_label
    _atom_site_type_symbol
    _atom_site_fract_x
    _atom_site_fract_y
    _atom_site_fract_z
    _atom_site_occupancy
    C0      C    0.20668   0.38041   0.20668   1.000
    C1      C    0.38050   0.20670   0.20669   1.000
    C2      C    0.20625   0.20637   0.20636   1.000
    C3      C    0.20668   0.20669   0.38041   1.000
    C4      C    0.61952   0.79330   0.79328   1.000
    C5      C    0.79334   0.61958   0.79329   1.000
    C6      C    0.79376   0.79362   0.79360   1.000
    C7      C    0.79333   0.79330   0.61956   1.000
    C8      C    0.04844   0.56803   0.04845   1.000
    C9      C    0.56820   0.04809   0.33571   1.000
    C10     C    0.04771   0.33573   0.04772   1.000
    C11     C    0.33564   0.04817   0.56807   1.000
    C12     C    0.04770   0.04773   0.33572   1.000
    C13     C    0.56820   0.33572   0.04808   1.000
    C14     C    0.04844   0.04846   0.56802   1.000
    C15     C    0.33564   0.56807   0.04817   1.000
    C16     C    0.04813   0.33572   0.56800   1.000
    C17     C    0.56814   0.04840   0.04840   1.000
    C18     C    0.04814   0.56808   0.33570   1.000
    C19     C    0.33566   0.04776   0.04776   1.000
    C20     C    0.43187   0.95160   0.95157   1.000
    C21     C    0.95187   0.43191   0.66420   1.000
    C22     C    0.66436   0.95224   0.95221   1.000
    C23     C    0.95188   0.66427   0.43100   1.000
    C24     C    0.95231   0.95226   0.66425   1.000
    C25     C    0.66437   0.43192   0.95180   1.000
    C26     C    0.95157   0.95154   0.43195   1.000
    C27     C    0.43182   0.66427   0.95189   1.000
    C28     C    0.66437   0.95182   0.43190   1.000
    C29     C    0.95157   0.43196   0.95152   1.000
    C30     C    0.43181   0.95191   0.66426   1.000
    C31     C    0.95230   0.66426   0.95220   1.000
    C32     C    0.02683   0.53899   0.02684   1.000
    C33     C    0.53910   0.02664   0.40767   1.000
    C34     C    0.02643   0.40769   0.02644   1.000
    C35     C    0.40765   0.02668   0.53902   1.000
    C36     C    0.02646   0.02642   0.40768   1.000
    C37     C    0.53910   0.40768   0.02664   1.000
    C38     C    0.02687   0.02682   0.53898   1.000
    C39     C    0.40765   0.53903   0.02660   1.000
    C40     C    0.02663   0.40769   0.53902   1.000
    C41     C    0.53905   0.02684   0.02679   1.000
    C42     C    0.02663   0.53903   0.40767   1.000
    C43     C    0.40766   0.02649   0.02644   1.000
    C44     C    0.46096   0.97315   0.97318   1.000
    C45     C    0.97338   0.46096   0.59230   1.000
    C46     C    0.59236   0.97350   0.97353   1.000
    C47     C    0.97339   0.59231   0.46095   1.000
    C48     C    0.97355   0.97358   0.59229   1.000
    C49     C    0.59237   0.46097   0.97329   1.000
    C50     C    0.97314   0.97318   0.46099   1.000
    C51     C    0.46091   0.59231   0.97333   1.000
    C52     C    0.59237   0.97331   0.46095   1.000
    C53     C    0.97318   0.46100   0.97313   1.000
    C54     C    0.46091   0.97335   0.59230   1.000
    C55     C    0.97358   0.59230   0.97353   1.000
    C56     C    0.11093   0.38898   0.11098   1.000
    C57     C    0.05362   0.44633   0.05364   1.000
    C58     C    0.38910   0.11113   0.38906   1.000
    C59     C    0.44640   0.05367   0.44637   1.000
    C60     C    0.11094   0.11098   0.38896   1.000
    C61     C    0.05359   0.05368   0.44632   1.000
    C62     C    0.38910   0.38907   0.11110   1.000
    C63     C    0.44640   0.44638   0.05367   1.000
    C64     C    0.11109   0.38907   0.38906   1.000
    C65     C    0.05370   0.44638   0.44637   1.000
    C66     C    0.38897   0.11099   0.11096   1.000
    C67     C    0.44634   0.05361   0.05360   1.000
    C68     C    0.61104   0.88900   0.88901   1.000
    C69     C    0.55367   0.94638   0.94630   1.000
    C70     C    0.88892   0.61092   0.61091   1.000
    C71     C    0.94631   0.55361   0.55360   1.000
    C72     C    0.88907   0.88902   0.61101   1.000
    C73     C    0.94641   0.94632   0.55365   1.000
    C74     C    0.61091   0.61092   0.88886   1.000
    C75     C    0.55361   0.55361   0.94630   1.000
    C76     C    0.61091   0.88887   0.61091   1.000
    C77     C    0.55361   0.94632   0.55360   1.000
    C78     C    0.88908   0.61102   0.88899   1.000
    C79     C    0.94639   0.55366   0.94633   1.000
    C80     C    0.25000   0.25000   0.24999   1.000
    C81     C    0.75001   0.75000   0.74998   1.000
    C82     C    0.13320   0.42860   0.13318   1.000
    C83     C    0.42870   0.13333   0.30531   1.000
    C84     C    0.13284   0.30520   0.13299   1.000
    C85     C    0.30531   0.13324   0.42864   1.000
    C86     C    0.13283   0.13302   0.30518   1.000
    C87     C    0.42870   0.30532   0.13331   1.000
    C88     C    0.13320   0.13318   0.42850   1.000
    C89     C    0.30530   0.42864   0.13324   1.000
    C90     C    0.13326   0.30532   0.42863   1.000
    C91     C    0.42863   0.13320   0.13300   1.000
    C92     C    0.13326   0.42864   0.30531   1.000
    C93     C    0.30515   0.13296   0.13296   1.000
    C94     C    0.57139   0.86680   0.86677   1.000
    C95     C    0.86675   0.57135   0.69466   1.000
    C96     C    0.69486   0.86703   0.86701   1.000
    C97     C    0.86675   0.69467   0.57134   1.000
    C98     C    0.86718   0.86698   0.69479   1.000
    C99     C    0.69471   0.57135   0.86674   1.000
    C100    C    0.86681   0.86680   0.57139   1.000
    C101    C    0.57131   0.69467   0.86666   1.000
    C102    C    0.69471   0.86675   0.57133   1.000
    C103    C    0.86681   0.57140   0.86679   1.000
    C104    C    0.57131   0.86667   0.69466   1.000
    C105    C    0.86717   0.69480   0.86698   1.000
    O106    O    0.03707   0.37171   0.03708   1.000
    O107    O    0.04003   0.42701   0.04004   1.000
    O108    O    0.99980   0.43435   0.99979   1.000
    O109    O    0.37166   0.03712   0.03710   1.000
    O110    O    0.42700   0.04005   0.04002   1.000
    O111    O    0.43431   0.99982   0.99981   1.000
    O112    O    0.37164   0.55355   0.03739   1.000
    O113    O    0.42702   0.49270   0.04013   1.000
    O114    O    0.43428   0.56567   0.99996   1.000
    O115    O    0.55365   0.37170   0.03736   1.000
    O116    O    0.49275   0.42703   0.04016   1.000
    O117    O    0.56573   0.43433   0.99996   1.000
    O118    O    0.55360   0.03762   0.03759   1.000
    O119    O    0.49269   0.04023   0.04020   1.000
    O120    O    0.56570   0.00017   0.00016   1.000
    O121    O    0.03764   0.55351   0.03764   1.000
    O122    O    0.04023   0.49266   0.04024   1.000
    O123    O    0.00021   0.56565   0.00018   1.000
    O124    O    0.41766   0.08230   0.08228   1.000
    O125    O    0.08228   0.41765   0.08231   1.000
    O126    O    0.41775   0.41773   0.08238   1.000
    O127    O    0.34706   0.12197   0.12196   1.000
    O128    O    0.40880   0.12209   0.12198   1.000
    O129    O    0.12189   0.34709   0.12198   1.000
    O130    O    0.12207   0.40879   0.12208   1.000
    O131    O    0.34720   0.40886   0.12217   1.000
    O132    O    0.40890   0.34719   0.12221   1.000
    O133    O    0.25570   0.16966   0.16966   1.000
    O134    O    0.16955   0.25578   0.16967   1.000
    O135    O    0.40456   0.16995   0.16985   1.000
    O136    O    0.16994   0.40450   0.16993   1.000
    O137    O    0.25599   0.40453   0.16996   1.000
    O138    O    0.40460   0.25601   0.17000   1.000
    O139    O    0.16954   0.16970   0.25577   1.000
    O140    O    0.22834   0.31520   0.22833   1.000
    O141    O    0.16997   0.40452   0.25600   1.000
    O142    O    0.40460   0.17001   0.25600   1.000
    O143    O    0.22834   0.22834   0.31520   1.000
    O144    O    0.12189   0.12200   0.34707   1.000
    O145    O    0.12218   0.40885   0.34718   1.000
    O146    O    0.40890   0.12223   0.34718   1.000
    O147    O    0.03738   0.55356   0.37168   1.000
    O148    O    0.55365   0.03736   0.37169   1.000
    O149    O    0.03708   0.03708   0.37170   1.000
    O150    O    0.16994   0.16994   0.40446   1.000
    O151    O    0.16997   0.25601   0.40452   1.000
    O152    O    0.25599   0.16997   0.40453   1.000
    O153    O    0.12207   0.12208   0.40873   1.000
    O154    O    0.08227   0.08233   0.41764   1.000
    O155    O    0.12218   0.34720   0.40885   1.000
    O156    O    0.08240   0.41773   0.41772   1.000
    O157    O    0.34720   0.12219   0.40885   1.000
    O158    O    0.41775   0.08240   0.41772   1.000
    O159    O    0.49275   0.04016   0.42702   1.000
    O160    O    0.56573   0.99998   0.43431   1.000
    O161    O    0.04017   0.49271   0.42702   1.000
    O162    O    0.00001   0.56567   0.43431   1.000
    O163    O    0.04003   0.04005   0.42700   1.000
    O164    O    0.99980   0.99980   0.43434   1.000
    O165    O    0.96263   0.62829   0.44598   1.000
    O166    O    0.62837   0.96257   0.44643   1.000
    O167    O    0.96236   0.96236   0.44647   1.000
    O168    O    0.04023   0.04025   0.49265   1.000
    O169    O    0.04016   0.42703   0.49270   1.000
    O170    O    0.42702   0.04018   0.49270   1.000
    O171    O    0.95985   0.57296   0.50728   1.000
    O172    O    0.57299   0.95982   0.50728   1.000
    O173    O    0.95978   0.95975   0.50732   1.000
    O174    O    0.03765   0.03764   0.55350   1.000
    O175    O    0.00021   0.00020   0.56563   1.000
    O176    O    0.37164   0.03743   0.55355   1.000
    O177    O    0.43428   0.00002   0.56566   1.000
    O178    O    0.03738   0.37170   0.55351   1.000
    O179    O    0.00000   0.43432   0.56566   1.000
    O180    O    0.50726   0.95984   0.57295   1.000
    O181    O    0.58226   0.91759   0.58226   1.000
    O182    O    0.95985   0.50728   0.57295   1.000
    O183    O    0.91762   0.58226   0.58226   1.000
    O184    O    0.95998   0.95995   0.57297   1.000
    O185    O    0.91774   0.91767   0.58233   1.000
    O186    O    0.65281   0.87781   0.59112   1.000
    O187    O    0.74402   0.83003   0.59545   1.000
    O188    O    0.87783   0.65280   0.59112   1.000
    O189    O    0.83004   0.74399   0.59545   1.000
    O190    O    0.87794   0.87791   0.59120   1.000
    O191    O    0.83007   0.83005   0.59547   1.000
    O192    O    0.96293   0.96292   0.62827   1.000
    O193    O    0.96263   0.44644   0.62825   1.000
    O194    O    0.44636   0.96263   0.62828   1.000
    O195    O    0.87784   0.59114   0.65279   1.000
    O196    O    0.59111   0.87777   0.65279   1.000
    O197    O    0.87812   0.87800   0.65290   1.000
    O198    O    0.77167   0.77165   0.68477   1.000
    O199    O    0.59541   0.82998   0.74397   1.000
    O200    O    0.83004   0.59547   0.74398   1.000
    O201    O    0.83047   0.83030   0.74420   1.000
    O202    O    0.77167   0.68479   0.77163   1.000
    O203    O    0.59542   0.74399   0.82997   1.000
    O204    O    0.59545   0.83005   0.83003   1.000
    O205    O    0.74402   0.59547   0.83001   1.000
    O206    O    0.83007   0.59549   0.83004   1.000
    O207    O    0.83047   0.74421   0.83029   1.000
    O208    O    0.74431   0.83033   0.83030   1.000
    O209    O    0.59111   0.65280   0.87776   1.000
    O210    O    0.65281   0.59114   0.87780   1.000
    O211    O    0.59121   0.87790   0.87789   1.000
    O212    O    0.87795   0.59121   0.87789   1.000
    O213    O    0.87813   0.65291   0.87799   1.000
    O214    O    0.65295   0.87802   0.87801   1.000
    O215    O    0.58226   0.58227   0.91758   1.000
    O216    O    0.91774   0.58234   0.91766   1.000
    O217    O    0.58236   0.91769   0.91765   1.000
    O218    O    0.57299   0.50729   0.95980   1.000
    O219    O    0.50726   0.57296   0.95982   1.000
    O220    O    0.50732   0.95977   0.95974   1.000
    O221    O    0.57301   0.95994   0.95991   1.000
    O222    O    0.95978   0.50733   0.95973   1.000
    O223    O    0.95999   0.57298   0.95993   1.000
    O224    O    0.96237   0.44648   0.96232   1.000
    O225    O    0.44642   0.96238   0.96238   1.000
    O226    O    0.62837   0.44644   0.96254   1.000
    O227    O    0.44637   0.62829   0.96261   1.000
    O228    O    0.96294   0.62828   0.96286   1.000
    O229    O    0.62836   0.96287   0.96287   1.000
    O230    O    0.31525   0.22835   0.22834   1.000
    O231    O    0.22813   0.22818   0.22817   1.000
    O232    O    0.68476   0.77165   0.77163   1.000
    O233    O    0.77189   0.77181   0.77179   1.000
loop_
    _geom_bond_atom_site_label_1
    _geom_bond_atom_site_label_2
    _geom_bond_distance
    _geom_bond_site_symmetry_2
    _ccdc_geom_bond_type
    C34    O106      0.54429      .   S
    C10    O106      0.54429      .   S
    C34    O107      0.70164      .   S
    C57    O107      0.70164      .   S
    C34    O108      0.69522  1_454   S
    C53    O108      0.69522      .   S
    C43    O109      0.54430      .   S
    C19    O109      0.54430      .   S
    C43    O110      0.70114      .   S
    C67    O110      0.70114      .   S
    C43    O111      0.69544  1_544   S
    C44    O111      0.69544      .   S
    C39    O112      0.54429      .   S
    C15    O112      0.54429      .   S
    C39    O113      0.70159      .   S
    C63    O113      0.70159      .   S
    C39    O114      0.69511  1_554   S
    C51    O114      0.69511      .   S
    C37    O115      0.54428      .   S
    C13    O115      0.54428      .   S
    C37    O116      0.70159      .   S
    C63    O116      0.70159      .   S
    C37    O117      0.69512  1_554   S
    C49    O117      0.69512      .   S
    C41    O118      0.54431      .   S
    C17    O118      0.54431      .   S
    C41    O119      0.70172      .   S
    C67    O119      0.70172      .   S
    C41    O120      0.69544      .   S
    C46    O120      0.69544  1_566   S
    C32    O121      0.54432      .   S
    C8     O121      0.54432      .   S
    C32    O122      0.70167      .   S
    C57    O122      0.70167      .   S
    C32    O123      0.69522      .   S
    C55    O123      0.69522  1_656   S
    C67    O124      0.74856      .   S
    C66    O124      0.74856      .   S
    C57    O125      0.74796      .   S
    C56    O125      0.74796      .   S
    C63    O126      0.74771      .   S
    C62    O126      0.74771      .   S
    C66    O127      0.63869      .   S
    C93    O127      0.63869      .   S
    C66    O128      0.63718      .   S
    C91    O128      0.63718      .   S
    C56    O129      0.63869      .   S
    C84    O129      0.63869      .   S
    C56    O130      0.63855      .   S
    C82    O130      0.63855      .   S
    C62    O131      0.63855      .   S
    C89    O131      0.63855      .   S
    C62    O132      0.63857      .   S
    C87    O132      0.63857      .   S
    C93    O133      0.98699      .   S
    C2     O133      0.98699      .   S
    C84    O134      0.98678      .   S
    C2     O134      0.98678      .   S
    C91    O135      0.98772      .   S
    C1     O135      0.98772      .   S
    C82    O136      0.98591      .   S
    C0     O136      0.98591      .   S
    C89    O137      0.98583      .   S
    C0     O137      0.98583      .   S
    C87    O138      0.98591      .   S
    C1     O138      0.98591      .   S
    C2     O139      0.98672      .   S
    C86    O139      0.98672      .   S
    C0     O140      0.98350      .   S
    C80    O140      0.98350      .   S
    C0     O141      0.98600      .   S
    C92    O141      0.98600      .   S
    C1     O142      0.98591      .   S
    C83    O142      0.98591      .   S
    C80    O143      0.98353      .   S
    C3     O143      0.98353      .   S
    C86    O144      0.63869      .   S
    C60    O144      0.63869      .   S
    C92    O145      0.63855      .   S
    C64    O145      0.63855      .   S
    C83    O146      0.63854      .   S
    C58    O146      0.63854      .   S
    C18    O147      0.54431      .   S
    C42    O147      0.54431      .   S
    C9     O148      0.54424      .   S
    C33    O148      0.54424      .   S
    C12    O149      0.54428      .   S
    C36    O149      0.54428      .   S
    C3     O150      0.98614      .   S
    C88    O150      0.98614      .   S
    C3     O151      0.98599      .   S
    C90    O151      0.98599      .   S
    C3     O152      0.98585      .   S
    C85    O152      0.98585      .   S
    C60    O153      0.63787      .   S
    C88    O153      0.63787      .   S
    C60    O154      0.74796      .   S
    C61    O154      0.74796      .   S
    C64    O155      0.63855      .   S
    C90    O155      0.63855      .   S
    C64    O156      0.74782      .   S
    C65    O156      0.74782      .   S
    C58    O157      0.63857      .   S
    C85    O157      0.63857      .   S
    C58    O158      0.74774      .   S
    C59    O158      0.74774      .   S
    C33    O159      0.70159      .   S
    C59    O159      0.70159      .   S
    C33    O160      0.69511  1_545   S
    C52    O160      0.69511      .   S
    C42    O161      0.70157      .   S
    C65    O161      0.70157      .   S
    C42    O162      0.69519      .   S
    C47    O162      0.69519  1_655   S
    C36    O163      0.70159      .   S
    C61    O163      0.70159      .   S
    C36    O164      0.69516  1_445   S
    C50    O164      0.69516      .   S
    C23    O165      0.54490      .   S
    C47    O165      0.54490      .   S
    C28    O166      0.54429      .   S
    C52    O166      0.54429      .   S
    C26    O167      0.54431      .   S
    C50    O167      0.54431      .   S
    C61    O168      0.70165      .   S
    C38    O168      0.70165      .   S
    C65    O169      0.70158      .   S
    C40    O169      0.70158      .   S
    C59    O170      0.70158      .   S
    C35    O170      0.70158      .   S
    C47    O171      0.70158      .   S
    C71    O171      0.70158      .   S
    C52    O172      0.70158      .   S
    C77    O172      0.70158      .   S
    C50    O173      0.70165      .   S
    C73    O173      0.70165      .   S
    C38    O174      0.54429      .   S
    C14    O174      0.54429      .   S
    C38    O175      0.69516      .   S
    C48    O175      0.69516  1_665   S
    C35    O176      0.54429      .   S
    C11    O176      0.54429      .   S
    C35    O177      0.69511      .   S
    C54    O177      0.69511  1_565   S
    C40    O178      0.54424      .   S
    C16    O178      0.54424      .   S
    C40    O179      0.69518      .   S
    C45    O179      0.69518  1_655   S
    C77    O180      0.70159      .   S
    C54    O180      0.70159      .   S
    C77    O181      0.74774      .   S
    C76    O181      0.74774      .   S
    C71    O182      0.70157      .   S
    C45    O182      0.70157      .   S
    C71    O183      0.74782      .   S
    C70    O183      0.74782      .   S
    C73    O184      0.70161      .   S
    C48    O184      0.70161      .   S
    C73    O185      0.74796      .   S
    C72    O185      0.74796      .   S
    C102   O186      0.63857      .   S
    C76    O186      0.63857      .   S
    C102   O187      0.98585      .   S
    C7     O187      0.98585      .   S
    C97    O188      0.63856      .   S
    C70    O188      0.63856      .   S
    C97    O189      0.98598      .   S
    C7     O189      0.98598      .   S
    C100   O190      0.63852      .   S
    C72    O190      0.63852      .   S
    C100   O191      0.98598      .   S
    C7     O191      0.98598      .   S
    C48    O192      0.54428      .   S
    C24    O192      0.54428      .   S
    C45    O193      0.54380      .   S
    C21    O193      0.54380      .   S
    C54    O194      0.54425      .   S
    C30    O194      0.54425      .   S
    C70    O195      0.63855      .   S
    C95    O195      0.63855      .   S
    C76    O196      0.63854      .   S
    C104   O196      0.63854      .   S
    C72    O197      0.63869      .   S
    C98    O197      0.63869      .   S
    C7     O198      0.98353      .   S
    C81    O198      0.98353      .   S
    C104   O199      0.98591      .   S
    C4     O199      0.98591      .   S
    C95    O200      0.98600      .   S
    C5     O200      0.98600      .   S
    C98    O201      0.98670      .   S
    C6     O201      0.98670      .   S
    C81    O202      0.98351      .   S
    C5     O202      0.98351      .   S
    C4     O203      0.98591      .   S
    C101   O203      0.98591      .   S
    C4     O204      0.98623      .   S
    C94    O204      0.98623      .   S
    C5     O205      0.98583      .   S
    C99    O205      0.98583      .   S
    C5     O206      0.98591      .   S
    C103   O206      0.98591      .   S
    C6     O207      0.98683      .   S
    C105   O207      0.98683      .   S
    C6     O208      0.98704      .   S
    C96    O208      0.98704      .   S
    C101   O209      0.63856      .   S
    C74    O209      0.63856      .   S
    C99    O210      0.63856      .   S
    C74    O210      0.63856      .   S
    C94    O211      0.63859      .   S
    C68    O211      0.63859      .   S
    C103   O212      0.63855      .   S
    C78    O212      0.63855      .   S
    C105   O213      0.63870      .   S
    C78    O213      0.63870      .   S
    C96    O214      0.63868      .   S
    C68    O214      0.63868      .   S
    C74    O215      0.74771      .   S
    C75    O215      0.74771      .   S
    C78    O216      0.74796      .   S
    C79    O216      0.74796      .   S
    C68    O217      0.74811      .   S
    C69    O217      0.74811      .   S
    C75    O218      0.70158      .   S
    C49    O218      0.70158      .   S
    C75    O219      0.70159      .   S
    C51    O219      0.70159      .   S
    C69    O220      0.70167      .   S
    C44    O220      0.70167      .   S
    C69    O221      0.70164      .   S
    C46    O221      0.70164      .   S
    C79    O222      0.70167      .   S
    C53    O222      0.70167      .   S
    C79    O223      0.70163      .   S
    C55    O223      0.70163      .   S
    C29    O224      0.54433      .   S
    C53    O224      0.54433      .   S
    C20    O225      0.54431      .   S
    C44    O225      0.54431      .   S
    C25    O226      0.54429      .   S
    C49    O226      0.54429      .   S
    C27    O227      0.54428      .   S
    C51    O227      0.54428      .   S
    C31    O228      0.54426      .   S
    C55    O228      0.54426      .   S
    C22    O229      0.54430      .   S
    C46    O229      0.54430      .   S
    C80    O230      0.98362      .   S
    C1     O230      0.98362      .   S
    C80    O231      0.98421      .   S
    C2     O231      0.98421      .   S
    C81    O232      0.98362      .   S
    C4     O232      0.98362      .   S
    C81    O233      0.98413      .   S
    C6     O233      0.98413      .   S
