# CIF file generated by openbabel 2.4.90, see http://openbabel.sf.net
data_I
_chemical_name_common ''
_cell_length_a 12.16
_cell_length_b 12.162
_cell_length_c 12.711
_cell_angle_alpha 102.47
_cell_angle_beta 102.441
_cell_angle_gamma 103.409
_space_group_name_H-M_alt 'P 1'
_space_group_name_Hall 'P 1'
loop_
    _symmetry_equiv_pos_as_xyz
    x,y,z
loop_
    _atom_site_label
    _atom_site_type_symbol
    _atom_site_fract_x
    _atom_site_fract_y
    _atom_site_fract_z
    _atom_site_occupancy
    Lv0     Lv   0.83287   0.78384   0.81682   1.000
    Lv1     Lv   0.78382   0.83331   0.31812   1.000
    Lv2     Lv   0.16717   0.21621   0.18213   1.000
    Lv3     Lv   0.50001   0.99850   0.99997   1.000
    Lv4     Lv   0.99857   0.50002   0.49997   1.000
    Lv5     Lv   0.21621   0.16673   0.68181   1.000
