# CIF file generated by openbabel 2.4.90, see http://openbabel.sf.net
data_I
_chemical_name_common ''
_cell_length_a 12.16
_cell_length_b 12.162
_cell_length_c 12.711
_cell_angle_alpha 102.47
_cell_angle_beta 102.441
_cell_angle_gamma 103.409
_space_group_name_H-M_alt 'P 1'
_space_group_name_Hall 'P 1'
loop_
    _symmetry_equiv_pos_as_xyz
    x,y,z
loop_
    _atom_site_label
    _atom_site_type_symbol
    _atom_site_fract_x
    _atom_site_fract_y
    _atom_site_fract_z
    _atom_site_occupancy
    H0      H    0.90224   0.50466   0.88978   1.000
    H1      H    0.76307   0.47513   0.85490   1.000
    H2      H    0.49570   0.09765   0.61097   1.000
    H3      H    0.52482   0.23679   0.64632   1.000
    H4      H    0.09779   0.49539   0.11016   1.000
    H5      H    0.23697   0.52492   0.14505   1.000
    H6      H    0.50434   0.90240   0.38897   1.000
    H7      H    0.47522   0.76326   0.35363   1.000
    C8      C    0.98327   0.28942   0.05464   1.000
    C9      C    0.34329   0.13388   0.31030   1.000
    C10     C    0.64237   0.21296   0.97154   1.000
    C11     C    0.71033   0.01721   0.44541   1.000
    C12     C    0.86618   0.65689   0.19036   1.000
    C13     C    0.78717   0.35814   0.52912   1.000
    C14     C    0.01676   0.71062   0.94530   1.000
    C15     C    0.65675   0.86617   0.68964   1.000
    C16     C    0.35766   0.78708   0.02840   1.000
    C17     C    0.28970   0.98283   0.55453   1.000
    C18     C    0.13385   0.34315   0.80958   1.000
    C19     C    0.21287   0.64190   0.47082   1.000
    O20     O    0.91011   0.21829   0.96837   1.000
    O21     O    0.97974   0.39792   0.09404   1.000
    O22     O    0.32944   0.02524   0.29348   1.000
    O23     O    0.43282   0.21517   0.38157   1.000
    O24     O    0.70683   0.29329   0.06240   1.000
    O25     O    0.63931   0.22196   0.87381   1.000
    O26     O    0.82629   0.44585   0.88854   1.000
    O27     O    0.78132   0.09037   0.53175   1.000
    O28     O    0.60189   0.02076   0.40586   1.000
    O29     O    0.97480   0.67083   0.20685   1.000
    O30     O    0.78485   0.56702   0.11961   1.000
    O31     O    0.70656   0.29378   0.43844   1.000
    O32     O    0.77843   0.36115   0.62693   1.000
    O33     O    0.55441   0.17385   0.61259   1.000
    O34     O    0.08993   0.78175   0.03157   1.000
    O35     O    0.02030   0.60212   0.90590   1.000
    O36     O    0.67060   0.97480   0.70647   1.000
    O37     O    0.56721   0.78488   0.61838   1.000
    O38     O    0.29319   0.70675   0.93754   1.000
    O39     O    0.36072   0.77808   0.12613   1.000
    O40     O    0.17375   0.55419   0.11141   1.000
    O41     O    0.21872   0.90967   0.46819   1.000
    O42     O    0.39815   0.97929   0.59408   1.000
    O43     O    0.02523   0.32921   0.79308   1.000
    O44     O    0.21518   0.43301   0.88034   1.000
    O45     O    0.29347   0.70628   0.56150   1.000
    O46     O    0.22161   0.63889   0.37301   1.000
    O47     O    0.44563   0.82620   0.38736   1.000
loop_
    _geom_bond_atom_site_label_1
    _geom_bond_atom_site_label_2
    _geom_bond_distance
    _geom_bond_site_symmetry_2
    _ccdc_geom_bond_type
    C16    O39       1.26383      .   S
    C16    O38       1.29240  1_554   S
    O34    C14       1.24715  1_554   S
    C8     O21       1.32065      .   S
    C8     O20       1.24714  1_554   S
    O24    C10       1.29240  1_554   S
    H4     O40       1.02335      .   S
    O40    H5        0.97556      .   S
    O30    C12       1.29319      .   S
    C12    O29       1.25647      .   S
    O22    C9        1.25654      .   S
    C9     O23       1.29321      .   S
    H7     O47       0.97560      .   S
    O46    C19       1.26389      .   S
    O47    H6        1.02352      .   S
    O28    C11       1.32049      .   S
    O31    C13       1.29219      .   S
    C11    O27       1.24706      .   S
    O41    C17       1.24702      .   S
    C19    O45       1.29220      .   S
    C13    O32       1.26391      .   S
    C17    O42       1.32052      .   S
    H2     O33       1.02349      .   S
    O33    H3        0.97560      .   S
    O37    C15       1.29321      .   S
    C15    O36       1.25654      .   S
    O43    C18       1.25646      .   S
    C18    O44       1.29321      .   S
    H1     O26       0.97556      .   S
    O25    C10       1.26382      .   S
    O26    H0        1.02340      .   S
    O35    C14       1.32065      .   S
