# CIF file generated by openbabel 2.4.90, see http://openbabel.sf.net
data_I
_chemical_name_common ''
_cell_length_a 12.16
_cell_length_b 12.162
_cell_length_c 12.711
_cell_angle_alpha 102.47
_cell_angle_beta 102.441
_cell_angle_gamma 103.409
_space_group_name_H-M_alt 'P 1'
_space_group_name_Hall 'P 1'
loop_
    _symmetry_equiv_pos_as_xyz
    x,y,z
loop_
    _atom_site_label
    _atom_site_type_symbol
    _atom_site_fract_x
    _atom_site_fract_y
    _atom_site_fract_z
    _atom_site_occupancy
    Ba0     Ba   0.20443   0.79546   0.24971   1.000
    Zn1     Zn   0.82283   0.42676   0.04868   1.000
    Zn2     Zn   0.57342   0.17775   0.45262   1.000
    Zn3     Zn   0.17721   0.57328   0.95127   1.000
    Zn4     Zn   0.42662   0.82230   0.54733   1.000
    H5      H    0.90224   0.50466   0.88978   1.000
    H6      H    0.76307   0.47513   0.85490   1.000
    H7      H    0.49570   0.09765   0.61097   1.000
    H8      H    0.52482   0.23679   0.64632   1.000
    H9      H    0.09779   0.49539   0.11016   1.000
    H10     H    0.23697   0.52492   0.14505   1.000
    Ba11    Ba   0.79560   0.20458   0.75023   1.000
    H12     H    0.50434   0.90240   0.38897   1.000
    H13     H    0.47522   0.76326   0.35363   1.000
    C14     C    0.98327   0.28942   0.05464   1.000
    C15     C    0.34329   0.13388   0.31030   1.000
    C16     C    0.64237   0.21296   0.97154   1.000
    C17     C    0.71033   0.01721   0.44541   1.000
    C18     C    0.86618   0.65689   0.19036   1.000
    C19     C    0.78717   0.35814   0.52912   1.000
    C20     C    0.01676   0.71062   0.94530   1.000
    C21     C    0.65675   0.86617   0.68964   1.000
    C22     C    0.35766   0.78708   0.02840   1.000
    C23     C    0.28970   0.98283   0.55453   1.000
    C24     C    0.13385   0.34315   0.80958   1.000
    C25     C    0.21287   0.64190   0.47082   1.000
    O26     O    0.91011   0.21829   0.96837   1.000
    O27     O    0.97974   0.39792   0.09404   1.000
    O28     O    0.32944   0.02524   0.29348   1.000
    O29     O    0.43282   0.21517   0.38157   1.000
    O30     O    0.70683   0.29329   0.06240   1.000
    O31     O    0.63931   0.22196   0.87381   1.000
    O32     O    0.82629   0.44585   0.88854   1.000
    O33     O    0.78132   0.09037   0.53175   1.000
    O34     O    0.60189   0.02076   0.40586   1.000
    O35     O    0.97480   0.67083   0.20685   1.000
    O36     O    0.78485   0.56702   0.11961   1.000
    O37     O    0.70656   0.29378   0.43844   1.000
    O38     O    0.77843   0.36115   0.62693   1.000
    O39     O    0.55441   0.17385   0.61259   1.000
    O40     O    0.08993   0.78175   0.03157   1.000
    O41     O    0.02030   0.60212   0.90590   1.000
    O42     O    0.67060   0.97480   0.70647   1.000
    O43     O    0.56721   0.78488   0.61838   1.000
    O44     O    0.29319   0.70675   0.93754   1.000
    O45     O    0.36072   0.77808   0.12613   1.000
    O46     O    0.17375   0.55419   0.11141   1.000
    O47     O    0.21872   0.90967   0.46819   1.000
    O48     O    0.39815   0.97929   0.59408   1.000
    O49     O    0.02523   0.32921   0.79308   1.000
    O50     O    0.21518   0.43301   0.88034   1.000
    O51     O    0.29347   0.70628   0.56150   1.000
    O52     O    0.22161   0.63889   0.37301   1.000
    O53     O    0.44563   0.82620   0.38736   1.000
    Og54    Og   0.01561   0.27776   0.07655   1.000
    Og55    Og   0.31311   0.14829   0.28827   1.000
    Og56    Og   0.61775   0.17649   0.97664   1.000
    Og57    Og   0.72205   0.98488   0.42353   1.000
    Og58    Og   0.85177   0.68715   0.21231   1.000
    Og59    Og   0.82363   0.38267   0.52390   1.000
    Og60    Og   0.98443   0.72228   0.92339   1.000
    Og61    Og   0.68693   0.85175   0.71167   1.000
    Og62    Og   0.38228   0.82355   0.02330   1.000
    Og63    Og   0.27799   0.01516   0.57640   1.000
    Og64    Og   0.14826   0.31289   0.78763   1.000
    Og65    Og   0.17641   0.61737   0.47604   1.000
loop_
    _geom_bond_atom_site_label_1
    _geom_bond_atom_site_label_2
    _geom_bond_distance
    _geom_bond_site_symmetry_2
    _ccdc_geom_bond_type
    C22    O45       1.26383      .   S
    C22    O44       1.29240  1_554   S
    O40    C20       1.24715  1_554   S
    Zn1    O30       1.95473      .   S
    Zn1    O27       2.00489      .   S
    Zn1    O36       1.95366      .   S
    C14    O27       1.32065      .   S
    C14    O26       1.24714  1_554   S
    O30    C16       1.29240  1_554   S
    H9     O46       1.02335      .   S
    O46    H10       0.97556      .   S
    O36    C18       1.29319      .   S
    C18    O35       1.25647      .   S
    O35    Ba0       2.72332  1_655   S
    Ba0    O28       2.72466  1_565   S
    O28    C15       1.25654      .   S
    C15    O29       1.29321      .   S
    H13    O53       0.97560      .   S
    O52    C25       1.26389      .   S
    O29    Zn2       1.95414      .   S
    O53    H12       1.02352      .   S
    O34    C17       1.32049      .   S
    O34    Zn2       2.00595      .   S
    O37    Zn2       1.95473      .   S
    O37    C19       1.29219      .   S
    C17    O33       1.24706      .   S
    O47    C23       1.24702      .   S
    C25    O51       1.29220      .   S
    C19    O38       1.26391      .   S
    Zn4    O51       1.95474      .   S
    Zn4    O48       2.00593      .   S
    Zn4    O43       1.95413      .   S
    C23    O48       1.32052      .   S
    H7     O39       1.02349      .   S
    O39    H8        0.97560      .   S
    O43    C21       1.29321      .   S
    C21    O42       1.25654      .   S
    O42    Ba11      2.72462  1_565   S
    Ba11   O49       2.72327  1_655   S
    O49    C24       1.25646      .   S
    C24    O50       1.29321      .   S
    H6     O32       0.97556      .   S
    O31    C16       1.26382      .   S
    O50    Zn3       1.95363      .   S
    O32    H5        1.02340      .   S
    O41    C20       1.32065      .   S
    O41    Zn3       2.00490      .   S
    O44    Zn3       1.95476      .   S
    O26    Ba11      2.77199      .   S
    O31    Ba11      2.73010      .   S
    O32    Ba11      2.97018      .   S
    O32    Zn1       2.10608  1_556   S
    O33    Ba11      2.77238      .   S
    O38    Ba11      2.73100      .   S
    O39    Ba11      2.96661      .   S
    O39    Zn2       2.10461      .   S
    O40    Ba0       2.77197      .   S
    O45    Ba0       2.73007      .   S
    O46    Ba0       2.97014      .   S
    O46    Zn3       2.10606  1_554   S
    O47    Ba0       2.77238      .   S
    O52    Ba0       2.73108      .   S
    O53    Ba0       2.96667      .   S
    O53    Zn4       2.10461      .   S
    C14    Og54      0.49796  1_655   S
    C15    Og55      0.50071      .   S
    C16    Og56      0.49976      .   S
    C17    Og57      0.49800  1_545   S
    C18    Og58      0.50062      .   S
    C19    Og59      0.49988      .   S
    C20    Og60      0.49796  1_455   S
    C21    Og61      0.50069      .   S
    C22    Og62      0.49976      .   S
    C23    Og63      0.49801  1_565   S
    C24    Og64      0.50062      .   S
    C25    Og65      0.49987      .   S
