# CIF file generated by openbabel 2.4.90, see http://openbabel.sf.net
data_I
_chemical_name_common ''
_cell_length_a 12.16
_cell_length_b 12.162
_cell_length_c 12.711
_cell_angle_alpha 102.47
_cell_angle_beta 102.441
_cell_angle_gamma 103.409
_space_group_name_H-M_alt 'P 1'
_space_group_name_Hall 'P 1'
loop_
    _symmetry_equiv_pos_as_xyz
    x,y,z
loop_
    _atom_site_label
    _atom_site_type_symbol
    _atom_site_fract_x
    _atom_site_fract_y
    _atom_site_fract_z
    _atom_site_occupancy
    Zr0     Zr   0.79560   0.20458   0.75023   1.000
    Zr1     Zr   0.20443   0.79546   0.24971   1.000
    Zr2     Zr   0.82283   0.42676   0.04868   1.000
    Zr3     Zr   0.57342   0.17775   0.45262   1.000
    Zr4     Zr   0.17721   0.57328   0.95127   1.000
    Zr5     Zr   0.42662   0.82230   0.54733   1.000
    Zr6     Zr   0.90224   0.50466   0.88978   1.000
    Zr7     Zr   0.76307   0.47513   0.85490   1.000
    Zr8     Zr   0.49570   0.09765   0.61097   1.000
    Zr9     Zr   0.52482   0.23679   0.64632   1.000
    Zr10    Zr   0.09779   0.49539   0.11016   1.000
    Zr11    Zr   0.23697   0.52492   0.14505   1.000
    Zr12    Zr   0.50434   0.90240   0.38897   1.000
    Zr13    Zr   0.47522   0.76326   0.35363   1.000
    Zr14    Zr   0.98327   0.28942   0.05464   1.000
    Zr15    Zr   0.34329   0.13388   0.31030   1.000
    Zr16    Zr   0.64237   0.21296   0.97154   1.000
    Zr17    Zr   0.71033   0.01721   0.44541   1.000
    Zr18    Zr   0.86618   0.65689   0.19036   1.000
    Zr19    Zr   0.78717   0.35814   0.52912   1.000
    Zr20    Zr   0.01676   0.71062   0.94530   1.000
    Zr21    Zr   0.65675   0.86617   0.68964   1.000
    Zr22    Zr   0.35766   0.78708   0.02840   1.000
    Zr23    Zr   0.28970   0.98283   0.55453   1.000
    Zr24    Zr   0.13385   0.34315   0.80958   1.000
    Zr25    Zr   0.21287   0.64190   0.47082   1.000
    Zr26    Zr   0.91011   0.21829   0.96837   1.000
    Zr27    Zr   0.97974   0.39792   0.09404   1.000
    Zr28    Zr   0.32944   0.02524   0.29348   1.000
    Zr29    Zr   0.43282   0.21517   0.38157   1.000
    Zr30    Zr   0.70683   0.29329   0.06240   1.000
    Zr31    Zr   0.63931   0.22196   0.87381   1.000
    Zr32    Zr   0.82629   0.44585   0.88854   1.000
    Zr33    Zr   0.78132   0.09037   0.53175   1.000
    Zr34    Zr   0.60189   0.02076   0.40586   1.000
    Zr35    Zr   0.97480   0.67083   0.20685   1.000
    Zr36    Zr   0.78485   0.56702   0.11961   1.000
    Zr37    Zr   0.70656   0.29378   0.43844   1.000
    Zr38    Zr   0.77843   0.36115   0.62693   1.000
    Zr39    Zr   0.55441   0.17385   0.61259   1.000
    Zr40    Zr   0.08993   0.78175   0.03157   1.000
    Zr41    Zr   0.02030   0.60212   0.90590   1.000
    Zr42    Zr   0.67060   0.97480   0.70647   1.000
    Zr43    Zr   0.56721   0.78488   0.61838   1.000
    Zr44    Zr   0.29319   0.70675   0.93754   1.000
    Zr45    Zr   0.36072   0.77808   0.12613   1.000
    Zr46    Zr   0.17375   0.55419   0.11141   1.000
    Zr47    Zr   0.21872   0.90967   0.46819   1.000
    Zr48    Zr   0.39815   0.97929   0.59408   1.000
    Zr49    Zr   0.02523   0.32921   0.79308   1.000
    Zr50    Zr   0.21518   0.43301   0.88034   1.000
    Zr51    Zr   0.29347   0.70628   0.56150   1.000
    Zr52    Zr   0.22161   0.63889   0.37301   1.000
    Zr53    Zr   0.44563   0.82620   0.38736   1.000
    O54     O    0.35919   0.78258   0.07727   1.000
    O55     O    0.32543   0.74691   0.98297   1.000
    O56     O    0.05334   0.74618   0.98843   1.000
    O57     O    0.76483   0.36002   0.05554   1.000
    O58     O    0.90128   0.41234   0.07136   1.000
    O59     O    0.80384   0.49689   0.08414   1.000
    O60     O    0.98151   0.34367   0.07434   1.000
    O61     O    0.94669   0.25386   0.01150   1.000
    O62     O    0.67460   0.25313   0.01697   1.000
    O63     O    0.13577   0.52479   0.11078   1.000
    O64     O    0.20536   0.53956   0.12823   1.000
    O65     O    0.82552   0.61196   0.15499   1.000
    O66     O    0.92049   0.66386   0.19860   1.000
    O67     O    0.08961   0.73315   0.22828   1.000
    O68     O    0.26694   0.91035   0.27160   1.000
    O69     O    0.33637   0.07956   0.30189   1.000
    O70     O    0.38806   0.17452   0.34593   1.000
    O71     O    0.46042   0.79473   0.37049   1.000
    O72     O    0.21724   0.64039   0.42192   1.000
    O73     O    0.50312   0.19646   0.41710   1.000
    O74     O    0.47498   0.86430   0.38816   1.000
    O75     O    0.65611   0.01899   0.42563   1.000
    O76     O    0.58765   0.09926   0.42924   1.000
    O77     O    0.63999   0.23577   0.44553   1.000
    O78     O    0.74687   0.32596   0.48378   1.000
    O79     O    0.74582   0.05379   0.48858   1.000
    O80     O    0.25421   0.94625   0.51136   1.000
    O81     O    0.25317   0.67409   0.51616   1.000
    O82     O    0.78280   0.35965   0.57803   1.000
    O83     O    0.36004   0.76429   0.55441   1.000
    O84     O    0.41239   0.90080   0.57071   1.000
    O85     O    0.49692   0.80359   0.58286   1.000
    O86     O    0.34393   0.98106   0.57430   1.000
    O87     O    0.52505   0.13575   0.61178   1.000
    O88     O    0.53962   0.20532   0.62945   1.000
    O89     O    0.61198   0.82553   0.65401   1.000
    O90     O    0.66367   0.92049   0.69805   1.000
    O91     O    0.73310   0.08969   0.72835   1.000
    O92     O    0.91042   0.26689   0.77165   1.000
    O93     O    0.07954   0.33618   0.80133   1.000
    O94     O    0.17451   0.38808   0.84496   1.000
    O95     O    0.79468   0.46049   0.87172   1.000
    O96     O    0.64084   0.21746   0.92268   1.000
    O97     O    0.19619   0.50315   0.91580   1.000
    O98     O    0.86427   0.47525   0.88916   1.000
    O99     O    0.01853   0.65637   0.92560   1.000
    O100    O    0.09875   0.58770   0.92858   1.000
    O101    O    0.23520   0.64001   0.94440   1.000
    O102    O    0.85286   0.21144   0.85930   1.000
    O103    O    0.71746   0.21327   0.81202   1.000
    O104    O    0.81095   0.32521   0.81938   1.000
    O105    O    0.82456   0.43630   0.96861   1.000
    O106    O    0.78846   0.14748   0.64099   1.000
    O107    O    0.78701   0.28286   0.68858   1.000
    O108    O    0.67501   0.18921   0.68141   1.000
    O109    O    0.56391   0.17580   0.53260   1.000
    O110    O    0.14718   0.78861   0.14064   1.000
    O111    O    0.28258   0.78677   0.18792   1.000
    O112    O    0.18909   0.67483   0.18056   1.000
    O113    O    0.17548   0.56374   0.03134   1.000
    O114    O    0.21158   0.85257   0.35895   1.000
    O115    O    0.21302   0.71718   0.31136   1.000
    O116    O    0.32503   0.81084   0.31854   1.000
    O117    O    0.43612   0.82425   0.46734   1.000
    N118    N    0.83287   0.78384   0.81682   1.000
    O119    O    0.76745   0.81419   0.76975   1.000
    O120    O    0.90056   0.75597   0.86463   1.000
    N121    N    0.78382   0.83331   0.31812   1.000
    O122    O    0.75586   0.90102   0.36536   1.000
    O123    O    0.81419   0.76780   0.27071   1.000
    N124    N    0.16717   0.21621   0.18213   1.000
    O125    O    0.23259   0.18586   0.22969   1.000
    O126    O    0.09947   0.24407   0.13481   1.000
    N127    N    0.50001   0.99850   0.99997   1.000
    O128    O    0.55273   0.07838   0.98958   1.000
    O129    O    0.44730   0.92014   0.01036   1.000
    N130    N    0.99857   0.50002   0.49997   1.000
    O131    O    0.07837   0.55256   0.48931   1.000
    O132    O    0.92022   0.44748   0.51063   1.000
    N133    N    0.21621   0.16673   0.68181   1.000
    O134    O    0.18584   0.23224   0.72923   1.000
    O135    O    0.24417   0.09903   0.63457   1.000
loop_
    _geom_bond_atom_site_label_1
    _geom_bond_atom_site_label_2
    _geom_bond_distance
    _geom_bond_site_symmetry_2
    _ccdc_geom_bond_type
    Zr22   O54       0.63191      .   S
    Zr45   O54       0.63191      .   S
    Zr22   O55       0.64620  1_554   S
    Zr44   O55       0.64620      .   S
    Zr40   O56       0.62357  1_554   S
    Zr20   O56       0.62357      .   S
    Zr2    O57       0.97736      .   S
    Zr30   O57       0.97736      .   S
    Zr2    O58       1.00245      .   S
    Zr27   O58       1.00245      .   S
    Zr2    O59       0.97683      .   S
    Zr36   O59       0.97683      .   S
    Zr14   O60       0.66033      .   S
    Zr27   O60       0.66033      .   S
    Zr14   O61       0.62357      .   S
    Zr26   O61       0.62357  1_556   S
    Zr30   O62       0.64620      .   S
    Zr16   O62       0.64620  1_556   S
    Zr10   O63       0.51168      .   S
    Zr46   O63       0.51168      .   S
    Zr46   O64       0.48778      .   S
    Zr11   O64       0.48778      .   S
    Zr36   O65       0.64659      .   S
    Zr18   O65       0.64659      .   S
    Zr18   O66       0.62824      .   S
    Zr35   O66       0.62824      .   S
    Zr35   O67       1.36166  1_655   S
    Zr1    O67       1.36166      .   S
    Zr1    O68       1.36233      .   S
    Zr28   O68       1.36233  1_545   S
    Zr28   O69       0.62827      .   S
    Zr15   O69       0.62827      .   S
    Zr15   O70       0.64661      .   S
    Zr29   O70       0.64661      .   S
    Zr13   O71       0.48780      .   S
    Zr53   O71       0.48780      .   S
    Zr52   O72       0.63195      .   S
    Zr25   O72       0.63195      .   S
    Zr29   O73       0.97707      .   S
    Zr3    O73       0.97707      .   S
    Zr53   O74       0.51176      .   S
    Zr12   O74       0.51176      .   S
    Zr34   O75       0.66025      .   S
    Zr17   O75       0.66025      .   S
    Zr34   O76       1.00297      .   S
    Zr3    O76       1.00297      .   S
    Zr37   O77       0.97736      .   S
    Zr3    O77       0.97736      .   S
    Zr37   O78       0.64610      .   S
    Zr19   O78       0.64610      .   S
    Zr17   O79       0.62353      .   S
    Zr33   O79       0.62353      .   S
    Zr47   O80       0.62351      .   S
    Zr23   O80       0.62351      .   S
    Zr25   O81       0.64610      .   S
    Zr51   O81       0.64610      .   S
    Zr19   O82       0.63195      .   S
    Zr38   O82       0.63195      .   S
    Zr5    O83       0.97737      .   S
    Zr51   O83       0.97737      .   S
    Zr5    O84       1.00297      .   S
    Zr48   O84       1.00297      .   S
    Zr5    O85       0.97707      .   S
    Zr43   O85       0.97707      .   S
    Zr23   O86       0.66026      .   S
    Zr48   O86       0.66026      .   S
    Zr8    O87       0.51175      .   S
    Zr39   O87       0.51175      .   S
    Zr39   O88       0.48780      .   S
    Zr9    O88       0.48780      .   S
    Zr43   O89       0.64661      .   S
    Zr21   O89       0.64661      .   S
    Zr21   O90       0.62827      .   S
    Zr42   O90       0.62827      .   S
    Zr42   O91       1.36231  1_565   S
    Zr0    O91       1.36231      .   S
    Zr0    O92       1.36163      .   S
    Zr49   O92       1.36163  1_455   S
    Zr49   O93       0.62823      .   S
    Zr24   O93       0.62823      .   S
    Zr24   O94       0.64660      .   S
    Zr50   O94       0.64660      .   S
    Zr7    O95       0.48778      .   S
    Zr32   O95       0.48778      .   S
    Zr31   O96       0.63191      .   S
    Zr16   O96       0.63191      .   S
    Zr50   O97       0.97681      .   S
    Zr4    O97       0.97681      .   S
    Zr32   O98       0.51170      .   S
    Zr6    O98       0.51170      .   S
    Zr41   O99       0.66032      .   S
    Zr20   O99       0.66032      .   S
    Zr41   O100      1.00245      .   S
    Zr4    O100      1.00245      .   S
    Zr44   O101      0.97738      .   S
    Zr4    O101      0.97738      .   S
    Zr26   O102      1.38599      .   S
    Zr0    O102      1.38599      .   S
    Zr31   O103      1.36505      .   S
    Zr0    O103      1.36505      .   S
    Zr32   O104      1.48509      .   S
    Zr0    O104      1.48509      .   S
    Zr32   O105      1.05304      .   S
    Zr2    O105      1.05304  1_554   S
    Zr33   O106      1.38619      .   S
    Zr0    O106      1.38619      .   S
    Zr38   O107      1.36550      .   S
    Zr0    O107      1.36550      .   S
    Zr39   O108      1.48331      .   S
    Zr0    O108      1.48331      .   S
    Zr39   O109      1.05231      .   S
    Zr3    O109      1.05231      .   S
    Zr40   O110      1.38599      .   S
    Zr1    O110      1.38599      .   S
    Zr45   O111      1.36504      .   S
    Zr1    O111      1.36504      .   S
    Zr46   O112      1.48507      .   S
    Zr1    O112      1.48507      .   S
    Zr46   O113      1.05303      .   S
    Zr4    O113      1.05303  1_556   S
    Zr47   O114      1.38619      .   S
    Zr1    O114      1.38619      .   S
    Zr52   O115      1.36554      .   S
    Zr1    O115      1.36554      .   S
    Zr53   O116      1.48334      .   S
    Zr1    O116      1.48334      .   S
    Zr53   O117      1.05230      .   S
    Zr5    O117      1.05230      .   S
    N118   O119      1.07401      .   S
    Zr21   O119      1.82503      .   S
    N118   O120      1.07918      .   S
    Zr20   O120      1.82583  1_455   S
    N121   O122      1.07628      .   S
    Zr17   O122      1.82303  1_545   S
    N121   O123      1.07684      .   S
    Zr18   O123      1.82776      .   S
    N124   O125      1.07699      .   S
    Zr15   O125      1.82804      .   S
    N124   O126      1.07625      .   S
    Zr14   O126      1.82294  1_655   S
    N127   O128      1.08401  1_565   S
    Zr16   O128      1.83359      .   S
    N127   O129      1.06961  1_556   S
    Zr22   O129      1.81923      .   S
    N130   O131      1.08388  1_655   S
    Zr25   O131      1.83365      .   S
    N130   O132      1.07010      .   S
    Zr19   O132      1.81990      .   S
    N133   O134      1.07685      .   S
    Zr24   O134      1.82777      .   S
    N133   O135      1.07627      .   S
    Zr23   O135      1.82303  1_565   S
