# CIF file generated by openbabel 2.4.90, see http://openbabel.sf.net
data_I
_chemical_name_common ''
_cell_length_a 12.16
_cell_length_b 12.162
_cell_length_c 12.711
_cell_angle_alpha 102.47
_cell_angle_beta 102.441
_cell_angle_gamma 103.409
_space_group_name_H-M_alt 'P 1'
_space_group_name_Hall 'P 1'
loop_
    _symmetry_equiv_pos_as_xyz
    x,y,z
loop_
    _atom_site_label
    _atom_site_type_symbol
    _atom_site_fract_x
    _atom_site_fract_y
    _atom_site_fract_z
    _atom_site_occupancy
    C0      C    0.79560   0.20458   0.75023   1.000
    C1      C    0.20443   0.79546   0.24971   1.000
    C2      C    0.82283   0.42676   0.04868   1.000
    C3      C    0.57342   0.17775   0.45262   1.000
    C4      C    0.17721   0.57328   0.95127   1.000
    C5      C    0.42662   0.82230   0.54733   1.000
    C6      C    0.04733   0.09511   0.99001   1.000
    C7      C    0.19814   0.02436   0.10029   1.000
    C8      C    0.28994   0.33969   0.37253   1.000
    C9      C    0.13404   0.40619   0.26602   1.000
    C10     C    0.60435   0.17383   0.16575   1.000
    C11     C    0.51949   0.00000   0.81140   1.000
    C12     C    0.90224   0.50466   0.88978   1.000
    C13     C    0.76307   0.47513   0.85490   1.000
    C14     C    0.90468   0.95331   0.51028   1.000
    C15     C    0.97565   0.80246   0.40018   1.000
    C16     C    0.66052   0.71036   0.12770   1.000
    C17     C    0.59395   0.86643   0.23394   1.000
    C18     C    0.82588   0.39552   0.33460   1.000
    C19     C    0.99051   0.48117   0.68874   1.000
    C20     C    0.49570   0.09765   0.61097   1.000
    C21     C    0.52482   0.23679   0.64632   1.000
    C22     C    0.95271   0.90493   0.00000   1.000
    C23     C    0.80190   0.97568   0.89965   1.000
    C24     C    0.71010   0.66036   0.62741   1.000
    C25     C    0.86599   0.59385   0.73392   1.000
    C26     C    0.39568   0.82621   0.83419   1.000
    C27     C    0.48054   0.99008   0.18850   1.000
    C28     C    0.09779   0.49539   0.11016   1.000
    C29     C    0.23697   0.52492   0.14505   1.000
    C30     C    0.09536   0.04674   0.48966   1.000
    C31     C    0.02438   0.19758   0.59976   1.000
    C32     C    0.33951   0.28969   0.87221   1.000
    C33     C    0.40608   0.13362   0.76600   1.000
    C34     C    0.17416   0.60452   0.66534   1.000
    C35     C    0.00000   0.51887   0.31120   1.000
    C36     C    0.50434   0.90240   0.38897   1.000
    C37     C    0.47522   0.76326   0.35363   1.000
    C38     C    0.98327   0.28942   0.05464   1.000
    C39     C    0.08027   0.25444   0.12036   1.000
    C40     C    0.09994   0.14735   0.07436   1.000
    C41     C    0.18424   0.10819   0.13606   1.000
    C42     C    0.25273   0.17713   0.24420   1.000
    C43     C    0.23584   0.28592   0.28905   1.000
    C44     C    0.14924   0.32369   0.22842   1.000
    C45     C    0.34329   0.13388   0.31030   1.000
    C46     C    0.64237   0.21296   0.97154   1.000
    C47     C    0.56852   0.10355   0.98685   1.000
    C48     C    0.55835   0.09749   0.09358   1.000
    C49     C    0.50982   0.00000   0.89362   1.000
    C50     C    0.71033   0.01721   0.44541   1.000
    C51     C    0.74547   0.92023   0.37978   1.000
    C52     C    0.85255   0.90064   0.42591   1.000
    C53     C    0.89182   0.81630   0.36434   1.000
    C54     C    0.82296   0.74768   0.25622   1.000
    C55     C    0.71421   0.76453   0.21121   1.000
    C56     C    0.67638   0.85122   0.27168   1.000
    C57     C    0.86618   0.65689   0.19036   1.000
    C58     C    0.78717   0.35814   0.52912   1.000
    C59     C    0.89656   0.43173   0.51345   1.000
    C60     C    0.90235   0.44160   0.40661   1.000
    C61     C    0.99508   0.49057   0.60645   1.000
    C62     C    0.01676   0.71062   0.94530   1.000
    C63     C    0.91977   0.74560   0.87958   1.000
    C64     C    0.90010   0.85269   0.92558   1.000
    C65     C    0.81580   0.89186   0.86388   1.000
    C66     C    0.74730   0.82291   0.75574   1.000
    C67     C    0.76420   0.71413   0.71089   1.000
    C68     C    0.85079   0.67635   0.77152   1.000
    C69     C    0.65675   0.86617   0.68964   1.000
    C70     C    0.35766   0.78708   0.02840   1.000
    C71     C    0.43150   0.89649   0.01309   1.000
    C72     C    0.44167   0.90255   0.90636   1.000
    C73     C    0.49021   0.99483   0.10632   1.000
    C74     C    0.28970   0.98283   0.55453   1.000
    C75     C    0.25457   0.07982   0.62015   1.000
    C76     C    0.14748   0.09940   0.57403   1.000
    C77     C    0.10821   0.18375   0.63559   1.000
    C78     C    0.17707   0.25237   0.74372   1.000
    C79     C    0.28582   0.23551   0.78873   1.000
    C80     C    0.32365   0.14883   0.72825   1.000
    C81     C    0.13385   0.34315   0.80958   1.000
    C82     C    0.21287   0.64190   0.47082   1.000
    C83     C    0.10348   0.56832   0.48649   1.000
    C84     C    0.09768   0.55844   0.59333   1.000
    C85     C    0.00000   0.50947   0.39349   1.000
    C86     C    0.91011   0.21829   0.96837   1.000
    C87     C    0.97974   0.39792   0.09404   1.000
    C88     C    0.32944   0.02524   0.29348   1.000
    C89     C    0.43282   0.21517   0.38157   1.000
    C90     C    0.70683   0.29329   0.06240   1.000
    C91     C    0.63931   0.22196   0.87381   1.000
    C92     C    0.82629   0.44585   0.88854   1.000
    C93     C    0.78132   0.09037   0.53175   1.000
    C94     C    0.60189   0.02076   0.40586   1.000
    C95     C    0.97480   0.67083   0.20685   1.000
    C96     C    0.78485   0.56702   0.11961   1.000
    C97     C    0.70656   0.29378   0.43844   1.000
    C98     C    0.77843   0.36115   0.62693   1.000
    C99     C    0.55441   0.17385   0.61259   1.000
    C100    C    0.08993   0.78175   0.03157   1.000
    C101    C    0.02030   0.60212   0.90590   1.000
    C102    C    0.67060   0.97480   0.70647   1.000
    C103    C    0.56721   0.78488   0.61838   1.000
    C104    C    0.29319   0.70675   0.93754   1.000
    C105    C    0.36072   0.77808   0.12613   1.000
    C106    C    0.17375   0.55419   0.11141   1.000
    C107    C    0.21872   0.90967   0.46819   1.000
    C108    C    0.39815   0.97929   0.59408   1.000
    C109    C    0.02523   0.32921   0.79308   1.000
    C110    C    0.21518   0.43301   0.88034   1.000
    C111    C    0.29347   0.70628   0.56150   1.000
    C112    C    0.22161   0.63889   0.37301   1.000
    C113    C    0.44563   0.82620   0.38736   1.000
    O114    O    0.92640   0.87881   0.96279   1.000
    O115    O    0.39458   0.84178   0.02074   1.000
    O116    O    0.46086   0.94566   0.05970   1.000
    O117    O    0.43659   0.89952   0.95973   1.000
    O118    O    0.35919   0.78258   0.07727   1.000
    O119    O    0.32543   0.74691   0.98297   1.000
    O120    O    0.05334   0.74618   0.98843   1.000
    O121    O    0.76483   0.36002   0.05554   1.000
    O122    O    0.90128   0.41234   0.07136   1.000
    O123    O    0.80384   0.49689   0.08414   1.000
    O124    O    0.98151   0.34367   0.07434   1.000
    O125    O    0.03177   0.27193   0.08750   1.000
    O126    O    0.94669   0.25386   0.01150   1.000
    O127    O    0.67460   0.25313   0.01697   1.000
    O128    O    0.09011   0.20090   0.09736   1.000
    O129    O    0.14209   0.12777   0.10521   1.000
    O130    O    0.07364   0.12123   0.03218   1.000
    O131    O    0.52428   0.04616   0.09995   1.000
    O132    O    0.58135   0.13566   0.12967   1.000
    O133    O    0.56344   0.10052   0.04021   1.000
    O134    O    0.19119   0.06628   0.11818   1.000
    O135    O    0.48537   0.99246   0.14741   1.000
    O136    O    0.13577   0.52479   0.11078   1.000
    O137    O    0.20536   0.53956   0.12823   1.000
    O138    O    0.82552   0.61196   0.15499   1.000
    O139    O    0.11476   0.28907   0.17439   1.000
    O140    O    0.68737   0.73744   0.16945   1.000
    O141    O    0.21849   0.14266   0.19013   1.000
    O142    O    0.92049   0.66386   0.19860   1.000
    O143    O    0.84457   0.70228   0.22329   1.000
    O144    O    0.08961   0.73315   0.22828   1.000
    O145    O    0.76859   0.75610   0.23371   1.000
    O146    O    0.69530   0.80788   0.24144   1.000
    O147    O    0.14164   0.36494   0.24722   1.000
    O148    O    0.19254   0.30480   0.25873   1.000
    O149    O    0.63517   0.85882   0.25281   1.000
    O150    O    0.24428   0.23152   0.26663   1.000
    O151    O    0.29801   0.15550   0.27725   1.000
    O152    O    0.26694   0.91035   0.27160   1.000
    O153    O    0.85739   0.78199   0.31028   1.000
    O154    O    0.71093   0.88572   0.32573   1.000
    O155    O    0.26289   0.31280   0.33079   1.000
    O156    O    0.33637   0.07956   0.30189   1.000
    O157    O    0.38806   0.17452   0.34593   1.000
    O158    O    0.00000   0.51417   0.35235   1.000
    O159    O    0.86412   0.41856   0.37061   1.000
    O160    O    0.46042   0.79473   0.37049   1.000
    O161    O    0.93373   0.80938   0.38226   1.000
    O162    O    0.87219   0.85847   0.39513   1.000
    O163    O    0.21724   0.64039   0.42192   1.000
    O164    O    0.79901   0.91043   0.40284   1.000
    O165    O    0.72790   0.96872   0.41260   1.000
    O166    O    0.50312   0.19646   0.41710   1.000
    O167    O    0.47498   0.86430   0.38816   1.000
    O168    O    0.95118   0.47554   0.40005   1.000
    O169    O    0.05174   0.53890   0.43999   1.000
    O170    O    0.65611   0.01899   0.42563   1.000
    O171    O    0.58765   0.09926   0.42924   1.000
    O172    O    0.89945   0.43666   0.46003   1.000
    O173    O    0.87862   0.92697   0.46809   1.000
    O174    O    0.63999   0.23577   0.44553   1.000
    O175    O    0.74687   0.32596   0.48378   1.000
    O176    O    0.74582   0.05379   0.48858   1.000
    O177    O    0.25421   0.94625   0.51136   1.000
    O178    O    0.15817   0.60511   0.47866   1.000
    O179    O    0.25317   0.67409   0.51616   1.000
    O180    O    0.10058   0.56338   0.53991   1.000
    O181    O    0.12142   0.07307   0.53185   1.000
    O182    O    0.84186   0.39494   0.52128   1.000
    O183    O    0.94582   0.46115   0.55995   1.000
    O184    O    0.78280   0.35965   0.57803   1.000
    O185    O    0.36004   0.76429   0.55441   1.000
    O186    O    0.41239   0.90080   0.57071   1.000
    O187    O    0.49692   0.80359   0.58286   1.000
    O188    O    0.34393   0.98106   0.57430   1.000
    O189    O    0.27213   0.03133   0.58734   1.000
    O190    O    0.20102   0.08961   0.59709   1.000
    O191    O    0.12785   0.14158   0.60481   1.000
    O192    O    0.04638   0.52451   0.59989   1.000
    O193    O    0.13592   0.58148   0.62934   1.000
    O194    O    0.06630   0.19067   0.61767   1.000
    O195    O    0.99279   0.48587   0.64760   1.000
    O196    O    0.52505   0.13575   0.61178   1.000
    O197    O    0.53962   0.20532   0.62945   1.000
    O198    O    0.61198   0.82553   0.65401   1.000
    O199    O    0.28911   0.11432   0.67420   1.000
    O200    O    0.73715   0.68724   0.66915   1.000
    O201    O    0.14264   0.21806   0.68965   1.000
    O202    O    0.66367   0.92049   0.69805   1.000
    O203    O    0.70203   0.84454   0.72269   1.000
    O204    O    0.73310   0.08969   0.72835   1.000
    O205    O    0.75575   0.76852   0.73331   1.000
    O206    O    0.80750   0.69524   0.74121   1.000
    O207    O    0.36487   0.14122   0.74712   1.000
    O208    O    0.30473   0.19217   0.75849   1.000
    O209    O    0.85839   0.63510   0.75272   1.000
    O210    O    0.23145   0.24394   0.76622   1.000
    O211    O    0.15546   0.29776   0.77665   1.000
    O212    O    0.91042   0.26689   0.77165   1.000
    O213    O    0.78155   0.85738   0.80981   1.000
    O214    O    0.88528   0.71097   0.82555   1.000
    O215    O    0.31266   0.26260   0.83047   1.000
    O216    O    0.07954   0.33618   0.80133   1.000
    O217    O    0.17451   0.38808   0.84496   1.000
    O218    O    0.51466   0.00000   0.85251   1.000
    O219    O    0.41868   0.86438   0.87028   1.000
    O220    O    0.79468   0.46049   0.87172   1.000
    O221    O    0.80885   0.93377   0.88177   1.000
    O222    O    0.85795   0.87228   0.89473   1.000
    O223    O    0.64084   0.21746   0.92268   1.000
    O224    O    0.90993   0.79915   0.90258   1.000
    O225    O    0.96826   0.72811   0.91244   1.000
    O226    O    0.19619   0.50315   0.91580   1.000
    O227    O    0.86427   0.47525   0.88916   1.000
    O228    O    0.47575   0.95128   0.89999   1.000
    O229    O    0.53917   0.05177   0.94023   1.000
    O230    O    0.01853   0.65637   0.92560   1.000
    O231    O    0.09875   0.58770   0.92858   1.000
    O232    O    0.23520   0.64001   0.94440   1.000
    O233    O    0.60545   0.15825   0.97919   1.000
    O234    O    0.85286   0.21144   0.85930   1.000
    O235    O    0.71746   0.21327   0.81202   1.000
    O236    O    0.81095   0.32521   0.81938   1.000
    O237    O    0.82456   0.43630   0.96861   1.000
    O238    O    0.78846   0.14748   0.64099   1.000
    O239    O    0.78701   0.28286   0.68858   1.000
    O240    O    0.67501   0.18921   0.68141   1.000
    O241    O    0.56391   0.17580   0.53260   1.000
    O242    O    0.14718   0.78861   0.14064   1.000
    O243    O    0.28258   0.78677   0.18792   1.000
    O244    O    0.18909   0.67483   0.18056   1.000
    O245    O    0.17548   0.56374   0.03134   1.000
    O246    O    0.21158   0.85257   0.35895   1.000
    O247    O    0.21302   0.71718   0.31136   1.000
    O248    O    0.32503   0.81084   0.31854   1.000
    O249    O    0.43612   0.82425   0.46734   1.000
loop_
    _geom_bond_atom_site_label_1
    _geom_bond_atom_site_label_2
    _geom_bond_distance
    _geom_bond_site_symmetry_2
    _ccdc_geom_bond_type
    C22    O114      0.49973  1_554   S
    C64    O114      0.49973      .   S
    C71    O115      0.74963      .   S
    C70    O115      0.74963      .   S
    C71    O116      0.70211      .   S
    C73    O116      0.70211      .   S
    C71    O117      0.70222  1_554   S
    C72    O117      0.70222      .   S
    C70    O118      0.63191      .   S
    C105   O118      0.63191      .   S
    C70    O119      0.64620  1_554   S
    C104   O119      0.64620      .   S
    C100   O120      0.62357  1_554   S
    C62    O120      0.62357      .   S
    C2     O121      0.97736      .   S
    C90    O121      0.97736      .   S
    C2     O122      1.00245      .   S
    C87    O122      1.00245      .   S
    C2     O123      0.97683      .   S
    C96    O123      0.97683      .   S
    C38    O124      0.66033      .   S
    C87    O124      0.66033      .   S
    C38    O125      0.74695  1_655   S
    C39    O125      0.74695      .   S
    C38    O126      0.62357      .   S
    C86    O126      0.62357  1_556   S
    C90    O127      0.64620      .   S
    C46    O127      0.64620  1_556   S
    C40    O128      0.70204      .   S
    C39    O128      0.70204      .   S
    C40    O129      0.69535      .   S
    C41    O129      0.69535      .   S
    C40    O130      0.54410      .   S
    C6     O130      0.54410  1_556   S
    C48    O131      0.69586      .   S
    C73    O131      0.69586  1_565   S
    C48    O132      0.54466      .   S
    C10    O132      0.54466      .   S
    C48    O133      0.70222      .   S
    C47    O133      0.70222  1_556   S
    C7     O134      0.54484      .   S
    C41    O134      0.54484      .   S
    C73    O135      0.54411      .   S
    C27    O135      0.54411      .   S
    C28    O136      0.51168      .   S
    C106   O136      0.51168      .   S
    C106   O137      0.48778      .   S
    C29    O137      0.48778      .   S
    C96    O138      0.64659      .   S
    C57    O138      0.64659      .   S
    C39    O139      0.70282      .   S
    C44    O139      0.70282      .   S
    C16    O140      0.54475      .   S
    C55    O140      0.54475      .   S
    C41    O141      0.70200      .   S
    C42    O141      0.70200      .   S
    C57    O142      0.62824      .   S
    C95    O142      0.62824      .   S
    C57    O143      0.75093      .   S
    C54    O143      0.75093      .   S
    C95    O144      1.36166  1_655   S
    C1     O144      1.36166      .   S
    C55    O145      0.70150      .   S
    C54    O145      0.70150      .   S
    C55    O146      0.69664      .   S
    C56    O146      0.69664      .   S
    C44    O147      0.54458      .   S
    C9     O147      0.54458      .   S
    C44    O148      0.69667      .   S
    C43    O148      0.69667      .   S
    C17    O149      0.54457      .   S
    C56    O149      0.54457      .   S
    C42    O150      0.70150      .   S
    C43    O150      0.70150      .   S
    C42    O151      0.75106      .   S
    C45    O151      0.75106      .   S
    C1     O152      1.36233      .   S
    C88    O152      1.36233  1_545   S
    C54    O153      0.70198      .   S
    C53    O153      0.70198      .   S
    C56    O154      0.70282      .   S
    C51    O154      0.70282      .   S
    C43    O155      0.54462      .   S
    C8     O155      0.54462      .   S
    C88    O156      0.62827      .   S
    C45    O156      0.62827      .   S
    C45    O157      0.64661      .   S
    C89    O157      0.64661      .   S
    C35    O158      0.53824      .   S
    C85    O158      0.53824      .   S
    C18    O159      0.54468      .   S
    C60    O159      0.54468      .   S
    C37    O160      0.48780      .   S
    C113   O160      0.48780      .   S
    C53    O161      0.54488      .   S
    C15    O161      0.54488      .   S
    C53    O162      0.69536      .   S
    C52    O162      0.69536      .   S
    C112   O163      0.63195      .   S
    C82    O163      0.63195      .   S
    C51    O164      0.70203      .   S
    C52    O164      0.70203      .   S
    C51    O165      0.74701      .   S
    C50    O165      0.74701  1_545   S
    C89    O166      0.97707      .   S
    C3     O166      0.97707      .   S
    C113   O167      0.51176      .   S
    C36    O167      0.51176      .   S
    C85    O168      0.67254  1_455   S
    C60    O168      0.67254      .   S
    C85    O169      0.71920      .   S
    C83    O169      0.71920      .   S
    C94    O170      0.66025      .   S
    C50    O170      0.66025      .   S
    C94    O171      1.00297      .   S
    C3     O171      1.00297      .   S
    C60    O172      0.70203      .   S
    C59    O172      0.70203      .   S
    C52    O173      0.54413      .   S
    C14    O173      0.54413      .   S
    C97    O174      0.97736      .   S
    C3     O174      0.97736      .   S
    C97    O175      0.64610      .   S
    C58    O175      0.64610      .   S
    C50    O176      0.62353      .   S
    C93    O176      0.62353      .   S
    C107   O177      0.62351      .   S
    C74    O177      0.62351      .   S
    C82    O178      0.74981      .   S
    C83    O178      0.74981      .   S
    C82    O179      0.64610      .   S
    C111   O179      0.64610      .   S
    C83    O180      0.70204      .   S
    C84    O180      0.70204      .   S
    C30    O181      0.54412      .   S
    C76    O181      0.54412      .   S
    C59    O182      0.74981      .   S
    C58    O182      0.74981      .   S
    C59    O183      0.70209      .   S
    C61    O183      0.70209      .   S
    C58    O184      0.63195      .   S
    C98    O184      0.63195      .   S
    C5     O185      0.97737      .   S
    C111   O185      0.97737      .   S
    C5     O186      1.00297      .   S
    C108   O186      1.00297      .   S
    C5     O187      0.97707      .   S
    C103   O187      0.97707      .   S
    C74    O188      0.66026      .   S
    C108   O188      0.66026      .   S
    C74    O189      0.74701  1_565   S
    C75    O189      0.74701      .   S
    C76    O190      0.70202      .   S
    C75    O190      0.70202      .   S
    C76    O191      0.69533      .   S
    C77    O191      0.69533      .   S
    C84    O192      0.69593      .   S
    C61    O192      0.69593  1_655   S
    C84    O193      0.54468      .   S
    C34    O193      0.54468      .   S
    C31    O194      0.54486      .   S
    C77    O194      0.54486      .   S
    C61    O195      0.54406      .   S
    C19    O195      0.54406      .   S
    C20    O196      0.51175      .   S
    C99    O196      0.51175      .   S
    C99    O197      0.48780      .   S
    C21    O197      0.48780      .   S
    C103   O198      0.64661      .   S
    C69    O198      0.64661      .   S
    C75    O199      0.70280      .   S
    C80    O199      0.70280      .   S
    C24    O200      0.54463      .   S
    C67    O200      0.54463      .   S
    C77    O201      0.70202      .   S
    C78    O201      0.70202      .   S
    C69    O202      0.62827      .   S
    C102   O202      0.62827      .   S
    C69    O203      0.75104      .   S
    C66    O203      0.75104      .   S
    C102   O204      1.36231  1_565   S
    C0     O204      1.36231      .   S
    C67    O205      0.70150      .   S
    C66    O205      0.70150      .   S
    C67    O206      0.69667      .   S
    C68    O206      0.69667      .   S
    C80    O207      0.54459      .   S
    C33    O207      0.54459      .   S
    C80    O208      0.69667      .   S
    C79    O208      0.69667      .   S
    C25    O209      0.54458      .   S
    C68    O209      0.54458      .   S
    C78    O210      0.70150      .   S
    C79    O210      0.70150      .   S
    C78    O211      0.75092      .   S
    C81    O211      0.75092      .   S
    C0     O212      1.36163      .   S
    C109   O212      1.36163  1_455   S
    C66    O213      0.70202      .   S
    C65    O213      0.70202      .   S
    C68    O214      0.70282      .   S
    C63    O214      0.70282      .   S
    C79    O215      0.54461      .   S
    C32    O215      0.54461      .   S
    C109   O216      0.62823      .   S
    C81    O216      0.62823      .   S
    C81    O217      0.64660      .   S
    C110   O217      0.64660      .   S
    C11    O218      0.53828      .   S
    C49    O218      0.53828      .   S
    C26    O219      0.54466      .   S
    C72    O219      0.54466      .   S
    C13    O220      0.48778      .   S
    C92    O220      0.48778      .   S
    C65    O221      0.54484      .   S
    C23    O221      0.54484      .   S
    C65    O222      0.69535      .   S
    C64    O222      0.69535      .   S
    C91    O223      0.63191      .   S
    C46    O223      0.63191      .   S
    C63    O224      0.70204      .   S
    C64    O224      0.70204      .   S
    C63    O225      0.74694      .   S
    C62    O225      0.74694  1_455   S
    C110   O226      0.97681      .   S
    C4     O226      0.97681      .   S
    C92    O227      0.51170      .   S
    C12    O227      0.51170      .   S
    C49    O228      0.67133  1_545   S
    C72    O228      0.67133      .   S
    C49    O229      0.72006      .   S
    C47    O229      0.72006      .   S
    C101   O230      0.66032      .   S
    C62    O230      0.66032      .   S
    C101   O231      1.00245      .   S
    C4     O231      1.00245      .   S
    C104   O232      0.97738      .   S
    C4     O232      0.97738      .   S
    C46    O233      0.74963      .   S
    C47    O233      0.74963      .   S
    C86    O234      1.38599      .   S
    C0     O234      1.38599      .   S
    C91    O235      1.36505      .   S
    C0     O235      1.36505      .   S
    C92    O236      1.48509      .   S
    C0     O236      1.48509      .   S
    C92    O237      1.05304      .   S
    C2     O237      1.05304  1_554   S
    C93    O238      1.38619      .   S
    C0     O238      1.38619      .   S
    C98    O239      1.36550      .   S
    C0     O239      1.36550      .   S
    C99    O240      1.48331      .   S
    C0     O240      1.48331      .   S
    C99    O241      1.05231      .   S
    C3     O241      1.05231      .   S
    C100   O242      1.38599      .   S
    C1     O242      1.38599      .   S
    C105   O243      1.36504      .   S
    C1     O243      1.36504      .   S
    C106   O244      1.48507      .   S
    C1     O244      1.48507      .   S
    C106   O245      1.05303      .   S
    C4     O245      1.05303  1_556   S
    C107   O246      1.38619      .   S
    C1     O246      1.38619      .   S
    C112   O247      1.36554      .   S
    C1     O247      1.36554      .   S
    C113   O248      1.48334      .   S
    C1     O248      1.48334      .   S
    C113   O249      1.05230      .   S
    C5     O249      1.05230      .   S
