# CIF file generated by openbabel 2.4.90, see http://openbabel.sf.net
data_I
_chemical_name_common ''
_cell_length_a 16.167
_cell_length_b 16.49
_cell_length_c 16.492
_cell_angle_alpha 98.472
_cell_angle_beta 93.827
_cell_angle_gamma 93.835
_space_group_name_H-M_alt 'P 1'
_space_group_name_Hall 'P 1'
loop_
    _symmetry_equiv_pos_as_xyz
    x,y,z
loop_
    _atom_site_label
    _atom_site_type_symbol
    _atom_site_fract_x
    _atom_site_fract_y
    _atom_site_fract_z
    _atom_site_occupancy
    Ca0     Ca   0.39597   0.33236   0.35868   1.000
    Ca1     Ca   0.81485   0.06527   0.49013   1.000
    Ca2     Ca   0.11188   0.88843   0.72357   1.000
    Ca3     Ca   0.10420   0.64025   0.66591   1.000
    Ca4     Ca   0.68503   0.50964   0.93396   1.000
    Ca5     Ca   0.61186   0.72347   0.88845   1.000
    Ca6     Ca   0.60424   0.66593   0.64034   1.000
    Ca7     Ca   0.18493   0.93408   0.50977   1.000
    Ca8     Ca   0.88827   0.11065   0.27607   1.000
    Ca9     Ca   0.89589   0.35855   0.33227   1.000
    Ca10    Ca   0.31459   0.48925   0.06481   1.000
    Ca11    Ca   0.38804   0.27555   0.11093   1.000
