# CIF file generated by openbabel 2.4.90, see http://openbabel.sf.net
data_I
_chemical_name_common ''
_cell_length_a 16.167
_cell_length_b 16.49
_cell_length_c 16.492
_cell_angle_alpha 98.472
_cell_angle_beta 93.827
_cell_angle_gamma 93.835
_space_group_name_H-M_alt 'P 1'
_space_group_name_Hall 'P 1'
loop_
    _symmetry_equiv_pos_as_xyz
    x,y,z
loop_
    _atom_site_label
    _atom_site_type_symbol
    _atom_site_fract_x
    _atom_site_fract_y
    _atom_site_fract_z
    _atom_site_occupancy
    Zr0     Zr   0.38804   0.27555   0.11093   1.000
    Zr1     Zr   0.39597   0.33236   0.35868   1.000
    Zr2     Zr   0.81485   0.06527   0.49013   1.000
    Zr3     Zr   0.11188   0.88843   0.72357   1.000
    Zr4     Zr   0.10420   0.64025   0.66591   1.000
    Zr5     Zr   0.68503   0.50964   0.93396   1.000
    Zr6     Zr   0.61186   0.72347   0.88845   1.000
    Zr7     Zr   0.60424   0.66593   0.64034   1.000
    Zr8     Zr   0.18493   0.93408   0.50977   1.000
    Zr9     Zr   0.88827   0.11065   0.27607   1.000
    Zr10    Zr   0.89589   0.35855   0.33227   1.000
    Zr11    Zr   0.31459   0.48925   0.06481   1.000
    N12     N    0.17882   0.34008   0.77289   1.000
    O13     O    0.38458   0.49889   0.83486   1.000
    O14     O    0.13379   0.45473   0.72220   1.000
    O15     O    0.25674   0.40610   0.88460   1.000
    N16     N    0.67878   0.77300   0.34016   1.000
    O17     O    0.75679   0.88484   0.40640   1.000
    O18     O    0.63379   0.72227   0.45483   1.000
    O19     O    0.88455   0.83493   0.49899   1.000
    N20     N    0.50351   0.92584   0.46957   1.000
    O21     O    0.46345   0.09496   0.32019   1.000
    O22     O    0.63164   0.97924   0.48580   1.000
    O23     O    0.58182   0.81708   0.55293   1.000
    O24     O    0.32236   0.81657   0.56542   1.000
    N25     N    0.00378   0.46946   0.92578   1.000
    O26     O    0.13172   0.48551   0.97909   1.000
    O27     O    0.82254   0.56538   0.81657   1.000
    O28     O    0.96367   0.31995   0.09507   1.000
    O29     O    0.08194   0.55286   0.81704   1.000
    N30     N    0.99658   0.52975   0.07382   1.000
    O31     O    0.86836   0.51389   0.02394   1.000
    O32     O    0.03669   0.67898   0.90442   1.000
    O33     O    0.17782   0.43379   0.18286   1.000
    O34     O    0.91838   0.44567   0.18161   1.000
    N35     N    0.82075   0.65945   0.22581   1.000
    O36     O    0.86597   0.54440   0.27590   1.000
    O37     O    0.74267   0.59323   0.11404   1.000
    O38     O    0.61510   0.50038   0.16409   1.000
    N39     N    0.32058   0.22595   0.65950   1.000
    O40     O    0.24247   0.11420   0.59330   1.000
    O41     O    0.11511   0.16414   0.50075   1.000
    O42     O    0.36591   0.27600   0.54447   1.000
    N43     N    0.49653   0.07378   0.52991   1.000
    O44     O    0.67776   0.18277   0.43386   1.000
    O45     O    0.53667   0.90437   0.67906   1.000
    O46     O    0.41840   0.18162   0.44578   1.000
    O47     O    0.36830   0.02396   0.51403   1.000
    O48     O    0.96980   0.39719   0.10483   1.000
    O49     O    0.04309   0.35382   0.58532   1.000
    O50     O    0.63608   0.08800   0.50362   1.000
    O51     O    0.09882   0.15924   0.57098   1.000
    O52     O    0.13599   0.50314   0.08789   1.000
    O53     O    0.59885   0.57060   0.15867   1.000
    O54     O    0.86407   0.49594   0.91147   1.000
    O55     O    0.40078   0.42871   0.83985   1.000
    O56     O    0.33337   0.89234   0.57599   1.000
    O57     O    0.14930   0.13824   0.77315   1.000
    O58     O    0.35022   0.22571   0.86136   1.000
    O59     O    0.16665   0.42328   0.10719   1.000
    O60     O    0.66674   0.10708   0.42362   1.000
    O61     O    0.85036   0.86127   0.22582   1.000
    O62     O    0.46969   0.10488   0.39737   1.000
    O63     O    0.54310   0.58544   0.35389   1.000
    O64     O    0.36390   0.91154   0.49605   1.000
    O65     O    0.90073   0.83996   0.42882   1.000
    O66     O    0.03050   0.60171   0.89434   1.000
    O67     O    0.95676   0.64563   0.41313   1.000
    O68     O    0.53050   0.89432   0.60181   1.000
    O69     O    0.45669   0.41320   0.64568   1.000
    O70     O    0.64920   0.77313   0.13831   1.000
    O71     O    0.83353   0.57591   0.89231   1.000
loop_
    _geom_bond_atom_site_label_1
    _geom_bond_atom_site_label_2
    _geom_bond_distance
    _geom_bond_site_symmetry_2
    _ccdc_geom_bond_type
    N12    O13       4.06948      .   S
    Zr6    O13       4.97777      .   S
    N12    O14       2.31772      .   S
    Zr4    O14       3.37967      .   S
    N12    O15       2.25433      .   S
    Zr11   O15       3.13748  1_554   S
    N16    O17       2.25758      .   S
    Zr2    O17       3.14366  1_545   S
    N16    O18       2.31793      .   S
    Zr7    O18       3.38006      .   S
    N16    O19       4.07002      .   S
    Zr3    O19       4.97898  1_455   S
    N20    O21       4.03979  1_565   S
    Zr0    O21       5.02149      .   S
    N20    O22       2.17964      .   S
    Zr2    O22       3.18903  1_545   S
    N20    O23       2.73991      .   S
    Zr7    O23       3.08725      .   S
    N20    O24       3.88241      .   S
    Zr4    O24       4.94666      .   S
    N25    O26       2.17635      .   S
    Zr11   O26       3.18352  1_554   S
    N25    O27       3.88406  1_455   S
    Zr7    O27       4.94833      .   S
    N25    O28       4.04352  1_456   S
    Zr9    O28       5.02666      .   S
    N25    O29       2.73879      .   S
    Zr4    O29       3.08651      .   S
    N30    O31       2.16290      .   S
    Zr5    O31       3.21664  1_556   S
    N30    O32       4.04164  1_654   S
    Zr3    O32       5.02597      .   S
    N30    O33       3.88307  1_655   S
    Zr1    O33       4.94948      .   S
    N30    O34       2.73365      .   S
    Zr10   O34       3.07758      .   S
    N35    O36       2.32010      .   S
    Zr10   O36       3.38636      .   S
    N35    O37       2.25737      .   S
    Zr5    O37       3.13715  1_556   S
    N35    O38       4.07011      .   S
    Zr0    O38       4.97810      .   S
    N39    O40       2.25691      .   S
    Zr8    O40       3.13671  1_565   S
    N39    O41       4.06532      .   S
    Zr9    O41       4.97475  1_655   S
    N39    O42       2.32017      .   S
    Zr1    O42       3.38621      .   S
    N43    O44       3.88297      .   S
    Zr10   O44       4.94947      .   S
    N43    O45       4.04113  1_545   S
    Zr6    O45       5.02595      .   S
    N43    O46       2.73428      .   S
    Zr1    O46       3.07847      .   S
    N43    O47       2.16291      .   S
    Zr8    O47       3.21607  1_565   S
    Zr10   O48       4.13567      .   S
    N25    O48       3.40707  1_456   S
    Zr10   O49       4.67763  1_655   S
    N12    O49       3.71521      .   S
    Zr2    O50       2.95791      .   S
    N43    O50       2.32851      .   S
    Zr2    O51       4.78319  1_655   S
    N39    O51       3.80723      .   S
    Zr11   O52       2.95695      .   S
    N30    O52       2.32788  1_655   S
    Zr11   O53       4.78848      .   S
    N35    O53       3.81209      .   S
    Zr5    O54       2.96199      .   S
    N25    O54       2.33216  1_455   S
    Zr5    O55       4.78790      .   S
    N12    O55       3.81140      .   S
    Zr3    O56       4.46418      .   S
    N20    O56       3.41742      .   S
    Zr3    O57       4.07581  1_565   S
    N12    O57       3.33137      .   S
    Zr0    O58       4.07308  1_554   S
    N39    O58       3.33226      .   S
    Zr0    O59       4.46433      .   S
    N30    O59       3.41673  1_655   S
    Zr9    O60       4.46425      .   S
    N43    O60       3.41632      .   S
    Zr9    O61       4.06979  1_545   S
    N35    O61       3.33044      .   S
    Zr1    O62       4.13533      .   S
    N20    O62       3.40562  1_565   S
    Zr1    O63       4.67699      .   S
    N16    O63       3.71396      .   S
    Zr8    O64       2.96102      .   S
    N20    O64       2.33051      .   S
    Zr8    O65       4.78741  1_455   S
    N16    O65       3.81143      .   S
    Zr4    O66       4.14949      .   S
    N30    O66       3.41107  1_654   S
    Zr4    O67       4.67770  1_455   S
    N35    O67       3.71449      .   S
    Zr7    O68       4.14879      .   S
    N43    O68       3.41035  1_545   S
    Zr7    O69       4.67691      .   S
    N39    O69       3.71402      .   S
    Zr6    O70       4.07719  1_556   S
    N16    O70       3.33171      .   S
    Zr6    O71       4.46645      .   S
    N25    O71       3.41923  1_455   S
