# CIF file generated by openbabel 2.4.90, see http://openbabel.sf.net
data_I
_chemical_name_common ''
_cell_length_a 15.096
_cell_length_b 16.337
_cell_length_c 16.337
_cell_angle_alpha 119.849
_cell_angle_beta 90.001
_cell_angle_gamma 90.001
_space_group_name_H-M_alt 'P 1'
_space_group_name_Hall 'P 1'
loop_
    _symmetry_equiv_pos_as_xyz
    x,y,z
loop_
    _atom_site_label
    _atom_site_type_symbol
    _atom_site_fract_x
    _atom_site_fract_y
    _atom_site_fract_z
    _atom_site_occupancy
    H0      H    0.32064   0.85320   0.58058   1.000
    H1      H    0.82062   0.85320   0.58057   1.000
    H2      H    0.32083   0.72760   0.14549   1.000
    H3      H    0.82081   0.72760   0.14549   1.000
    H4      H    0.32103   0.41899   0.27249   1.000
    H5      H    0.82102   0.41899   0.27250   1.000
    H6      H    0.07043   0.14692   0.41946   1.000
    H7      H    0.57041   0.14692   0.41946   1.000
    H8      H    0.07052   0.27241   0.85461   1.000
    H9      H    0.57051   0.27241   0.85461   1.000
    H10     H    0.07080   0.58118   0.72767   1.000
    H11     H    0.57078   0.58118   0.72767   1.000
    H12     H    0.07081   0.72769   0.58119   1.000
    H13     H    0.57079   0.72769   0.58119   1.000
    H14     H    0.07044   0.41946   0.14692   1.000
    H15     H    0.57042   0.41946   0.14692   1.000
    H16     H    0.07053   0.85462   0.27240   1.000
    H17     H    0.57051   0.85462   0.27240   1.000
    H18     H    0.32104   0.27249   0.41897   1.000
    H19     H    0.82102   0.27249   0.41897   1.000
    H20     H    0.32064   0.58059   0.85319   1.000
    H21     H    0.82063   0.58058   0.85319   1.000
    H22     H    0.32083   0.14549   0.72760   1.000
    H23     H    0.82081   0.14549   0.72760   1.000
    H24     H    0.03369   0.00004   0.53284   1.000
    H25     H    0.53367   0.00004   0.53284   1.000
    H26     H    0.03369   0.53284   0.40000   1.000
    H27     H    0.53367   0.53284   0.40000   1.000
    H28     H    0.03355   0.46771   0.46770   1.000
    H29     H    0.53354   0.46771   0.46770   1.000
    H30     H    0.28332   0.99998   0.46729   1.000
    H31     H    0.78331   0.99998   0.46720   1.000
    H32     H    0.28332   0.46729   0.99998   1.000
    H33     H    0.78331   0.46729   0.99998   1.000
    H34     H    0.28326   0.53243   0.53242   1.000
    H35     H    0.78325   0.53243   0.53242   1.000
    C36     C    0.35367   0.91849   0.59507   1.000
    C37     C    0.85365   0.91849   0.59507   1.000
    C38     C    0.43231   0.91486   0.54762   1.000
    C39     C    0.93230   0.91486   0.54762   1.000
    C40     C    0.47240   0.82494   0.47480   1.000
    C41     C    0.97238   0.82494   0.47480   1.000
    C42     C    0.35375   0.67649   0.08040   1.000
    C43     C    0.85374   0.67649   0.08040   1.000
    C44     C    0.43236   0.63289   0.08456   1.000
    C45     C    0.93234   0.63289   0.08456   1.000
    C46     C    0.47245   0.65050   0.17479   1.000
    C47     C    0.97244   0.65050   0.17479   1.000
    C48     C    0.35394   0.40474   0.32359   1.000
    C49     C    0.85392   0.40474   0.32359   1.000
    C50     C    0.43241   0.45247   0.36742   1.000
    C51     C    0.93239   0.45247   0.36742   1.000
    C52     C    0.47250   0.52524   0.34990   1.000
    C53     C    0.97248   0.52524   0.34990   1.000
    C54     C    0.10344   0.08160   0.40492   1.000
    C55     C    0.60342   0.08160   0.40492   1.000
    C56     C    0.18201   0.08521   0.45247   1.000
    C57     C    0.68200   0.08521   0.45247   1.000
    C58     C    0.22195   0.17518   0.52537   1.000
    C59     C    0.72194   0.17518   0.52537   1.000
    C60     C    0.10347   0.32350   0.91970   1.000
    C61     C    0.60346   0.32350   0.91970   1.000
    C62     C    0.18201   0.36719   0.91551   1.000
    C63     C    0.68199   0.36719   0.91551   1.000
    C64     C    0.22191   0.34958   0.82520   1.000
    C65     C    0.72189   0.34958   0.82520   1.000
    C66     C    0.10371   0.59547   0.67660   1.000
    C67     C    0.60369   0.59547   0.67660   1.000
    C68     C    0.18213   0.54768   0.63271   1.000
    C69     C    0.68212   0.54768   0.63272   1.000
    C70     C    0.22201   0.47478   0.65016   1.000
    C71     C    0.72200   0.47478   0.65016   1.000
    C72     C    0.10371   0.67661   0.59547   1.000
    C73     C    0.60369   0.67661   0.59540   1.000
    C74     C    0.18212   0.63271   0.54766   1.000
    C75     C    0.68211   0.63272   0.54767   1.000
    C76     C    0.22202   0.65018   0.47479   1.000
    C77     C    0.72200   0.65018   0.47479   1.000
    C78     C    0.10344   0.40493   0.08160   1.000
    C79     C    0.60342   0.40493   0.08160   1.000
    C80     C    0.18201   0.45249   0.08520   1.000
    C81     C    0.68199   0.45248   0.08520   1.000
    C82     C    0.22196   0.52537   0.17510   1.000
    C83     C    0.72194   0.52537   0.17510   1.000
    C84     C    0.10348   0.91970   0.32349   1.000
    C85     C    0.60346   0.91970   0.32349   1.000
    C86     C    0.18200   0.91552   0.36720   1.000
    C87     C    0.68198   0.91552   0.36720   1.000
    C88     C    0.22191   0.82521   0.34957   1.000
    C89     C    0.72190   0.82521   0.34957   1.000
    C90     C    0.35394   0.32359   0.40473   1.000
    C91     C    0.85392   0.32360   0.40470   1.000
    C92     C    0.43240   0.36743   0.45247   1.000
    C93     C    0.93239   0.36743   0.45247   1.000
    C94     C    0.47250   0.34990   0.52522   1.000
    C95     C    0.97249   0.34990   0.52522   1.000
    C96     C    0.35366   0.59507   0.91848   1.000
    C97     C    0.85365   0.59507   0.91848   1.000
    C98     C    0.43231   0.54762   0.91485   1.000
    C99     C    0.93229   0.54761   0.91485   1.000
    C100    C    0.47240   0.47481   0.82493   1.000
    C101    C    0.97239   0.47481   0.82493   1.000
    C102    C    0.35376   0.08041   0.67649   1.000
    C103    C    0.85374   0.08041   0.67649   1.000
    C104    C    0.43235   0.08456   0.63287   1.000
    C105    C    0.93234   0.08456   0.63287   1.000
    C106    C    0.47246   0.17480   0.65050   1.000
    C107    C    0.97244   0.17480   0.65000   1.000
    C108    C    0.47259   0.99983   0.56800   1.000
    C109    C    0.97258   0.99983   0.56802   1.000
    C110    C    0.47258   0.56801   0.99983   1.000
    C111    C    0.97257   0.56802   0.99983   1.000
    C112    C    0.47258   0.43231   0.43230   1.000
    C113    C    0.97257   0.43231   0.43231   1.000
    C114    C    0.22229   0.00022   0.43203   1.000
    C115    C    0.72228   0.00022   0.43203   1.000
    C116    C    0.22229   0.43204   0.00021   1.000
    C117    C    0.72227   0.43204   0.00021   1.000
    C118    C    0.22234   0.56786   0.56786   1.000
    C119    C    0.72232   0.56786   0.56785   1.000
    N120    N    0.31493   0.99931   0.65906   1.000
    N121    N    0.81491   0.99931   0.65906   1.000
    N122    N    0.31493   0.65907   0.99931   1.000
    N123    N    0.81491   0.65906   0.99931   1.000
    N124    N    0.31521   0.34078   0.34077   1.000
    N125    N    0.81520   0.34078   0.34077   1.000
    N126    N    0.06467   0.00080   0.34093   1.000
    N127    N    0.56465   0.00080   0.34093   1.000
    N128    N    0.06467   0.34094   0.00080   1.000
    N129    N    0.56465   0.34094   0.00080   1.000
    N130    N    0.06498   0.65944   0.65943   1.000
    N131    N    0.56497   0.65944   0.65944   1.000
    O132    O    0.43281   0.74476   0.44563   1.000
    O133    O    0.93279   0.74476   0.44563   1.000
    O134    O    0.04751   0.82690   0.44097   1.000
    O135    O    0.54749   0.82690   0.44097   1.000
    O136    O    0.43280   0.70163   0.25483   1.000
    O137    O    0.93279   0.70163   0.25483   1.000
    O138    O    0.04754   0.61483   0.17310   1.000
    O139    O    0.54752   0.61483   0.17310   1.000
    O140    O    0.43292   0.55434   0.29870   1.000
    O141    O    0.93290   0.55434   0.29870   1.000
    O142    O    0.04757   0.55913   0.38561   1.000
    O143    O    0.54756   0.55913   0.38561   1.000
    O144    O    0.18234   0.25526   0.55429   1.000
    O145    O    0.68233   0.25526   0.55429   1.000
    O146    O    0.29693   0.17330   0.55950   1.000
    O147    O    0.79691   0.17330   0.55950   1.000
    O148    O    0.18218   0.29832   0.74528   1.000
    O149    O    0.68217   0.29832   0.74528   1.000
    O150    O    0.29688   0.38540   0.82667   1.000
    O151    O    0.79687   0.38540   0.82667   1.000
    O152    O    0.18239   0.44593   0.70151   1.000
    O153    O    0.68237   0.44593   0.70151   1.000
    O154    O    0.29693   0.44054   0.61421   1.000
    O155    O    0.79691   0.44054   0.61421   1.000
    O156    O    0.18239   0.70152   0.44593   1.000
    O157    O    0.68237   0.70152   0.44593   1.000
    O158    O    0.29692   0.61421   0.44053   1.000
    O159    O    0.79691   0.61421   0.44050   1.000
    O160    O    0.18234   0.55430   0.25526   1.000
    O161    O    0.68233   0.55430   0.25526   1.000
    O162    O    0.29692   0.55951   0.17329   1.000
    O163    O    0.79691   0.55951   0.17329   1.000
    O164    O    0.18218   0.74529   0.29832   1.000
    O165    O    0.68217   0.74529   0.29832   1.000
    O166    O    0.29688   0.82668   0.38540   1.000
    O167    O    0.79687   0.82668   0.38540   1.000
    O168    O    0.43292   0.29871   0.55433   1.000
    O169    O    0.93290   0.29871   0.55433   1.000
    O170    O    0.04757   0.38562   0.55913   1.000
    O171    O    0.54756   0.38562   0.55913   1.000
    O172    O    0.43281   0.44563   0.74475   1.000
    O173    O    0.93279   0.44563   0.74475   1.000
    O174    O    0.04751   0.44097   0.82689   1.000
    O175    O    0.54749   0.44097   0.82600   1.000
    O176    O    0.43281   0.25483   0.70162   1.000
    O177    O    0.93279   0.25483   0.70162   1.000
    O178    O    0.04753   0.17319   0.61480   1.000
    O179    O    0.54752   0.17319   0.61480   1.000
loop_
    _geom_bond_atom_site_label_1
    _geom_bond_atom_site_label_2
    _geom_bond_distance
    _geom_bond_site_symmetry_2
    _ccdc_geom_bond_type
    C116   C80       1.39560      .   S
    C116   C62       1.39557  1_554   S
    C116   H32       1.08744  1_554   S
    C117   C81       1.39560      .   S
    C117   C63       1.39557  1_554   S
    C117   H33       1.08744  1_554   S
    N128   C78       1.34323      .   S
    N128   C60       1.34318  1_554   S
    N129   C79       1.34323      .   S
    N129   C61       1.34318  1_554   S
    C42    C44       1.40296      .   S
    C42    H2        1.09146      .   S
    C42    N122      1.34319  1_554   S
    C43    C45       1.40297      .   S
    C43    H3        1.09146      .   S
    C43    N123      1.34319  1_554   S
    C79    C81       1.40294      .   S
    C79    H15       1.09143      .   S
    C78    C80       1.40294      .   S
    C78    H14       1.09143      .   S
    C45    C47       1.48318      .   S
    C45    C111      1.39563  1_554   S
    C44    C46       1.48319      .   S
    C44    C110      1.39563  1_554   S
    C80    C82       1.48247      .   S
    C81    C83       1.48247      .   S
    O139   C46       1.26831      .   S
    O138   C47       1.26873  1_455   S
    O162   C82       1.26855      .   S
    O163   C83       1.26855      .   S
    C47    O137      1.29560      .   S
    C46    O136      1.29559      .   S
    C83    O161      1.29610      .   S
    C82    O160      1.29610      .   S
    H17    C85       1.09140      .   S
    H16    C84       1.09140      .   S
    H4     C48       1.09147      .   S
    H5     C49       1.09133      .   S
    O164   C88       1.29501      .   S
    O165   C89       1.29501      .   S
    O140   C52       1.29567      .   S
    O141   C53       1.29565      .   S
    C85    N127      1.34314  1_565   S
    C85    C87       1.40292      .   S
    C84    N126      1.34311  1_565   S
    C84    C86       1.40292      .   S
    C48    N124      1.34330      .   S
    C48    C50       1.40292      .   S
    C49    N125      1.34332      .   S
    C49    C51       1.40293      .   S
    N124   C90       1.34331      .   S
    N125   C91       1.34285      .   S
    N126   C54       1.34328      .   S
    N127   C55       1.34328      .   S
    C88    C86       1.48324      .   S
    C88    O166      1.26883      .   S
    C89    C87       1.48324      .   S
    C89    O167      1.26883      .   S
    C53    C51       1.48324      .   S
    C53    O142      1.26898  1_655   S
    C52    C50       1.48320      .   S
    C52    O143      1.26857      .   S
    C87    C115      1.39554  1_565   S
    C86    C114      1.39554  1_565   S
    C50    C112      1.39547      .   S
    C51    C113      1.39556      .   S
    O142   H26       0.61979      .   S
    O143   H27       0.61978      .   S
    C91    H19       1.09171      .   S
    C91    C93       1.40306      .   S
    C90    H18       1.09140      .   S
    C90    C92       1.40289      .   S
    C54    H6        1.09137      .   S
    C54    C56       1.40293      .   S
    C55    H7        1.09138      .   S
    C55    C57       1.40293      .   S
    C114   C56       1.39561      .   S
    C114   H30       1.08752  1_545   S
    C115   C57       1.39562      .   S
    C115   H31       1.08674  1_545   S
    C112   C92       1.39554      .   S
    C112   H29       1.08745      .   S
    C113   C93       1.39548      .   S
    C113   H28       1.08780  1_655   S
    O159   C77       1.26891      .   S
    O158   C76       1.26881      .   S
    O134   C41       1.26902  1_455   S
    O135   C40       1.26859      .   S
    O132   C40       1.29559      .   S
    O133   C41       1.29559      .   S
    O156   C76       1.29512      .   S
    O157   C77       1.29512      .   S
    C57    C59       1.48318      .   S
    C93    C95       1.48322      .   S
    C92    C94       1.48322      .   S
    C56    C58       1.48318      .   S
    C76    C74       1.48307      .   S
    C77    C75       1.48317      .   S
    C40    C38       1.48319      .   S
    C41    C39       1.48320      .   S
    C95    O169      1.29562      .   S
    C95    O170      1.26899  1_655   S
    C94    O168      1.29562      .   S
    C94    O171      1.26858      .   S
    C59    O145      1.29510      .   S
    C59    O147      1.26880      .   S
    C58    O144      1.29510      .   S
    C58    O146      1.26880      .   S
    H35    C119      1.08746      .   S
    H34    C118      1.08746      .   S
    H25    C108      1.08730  1_545   S
    H24    C109      1.08785  1_445   S
    C38    C108      1.39555      .   S
    C38    C36       1.40297      .   S
    C39    C109      1.39549      .   S
    C39    C37       1.40294      .   S
    C74    C118      1.39568      .   S
    C74    C72       1.40290      .   S
    C75    C119      1.39555      .   S
    C75    C73       1.40256      .   S
    C119   C69       1.39566      .   S
    C118   C68       1.39551      .   S
    C108   C104      1.39565  1_565   S
    C109   C105      1.39559  1_565   S
    H1     C37       1.09136      .   S
    H0     C36       1.09140      .   S
    H13    C73       1.09074      .   S
    H12    C72       1.09138      .   S
    C37    N121      1.34321      .   S
    C36    N120      1.34318      .   S
    C73    N131      1.34425      .   S
    C72    N130      1.34321      .   S
    O154   C70       1.26877      .   S
    O155   C71       1.26876      .   S
    O179   C106      1.26873      .   S
    O178   C107      1.26550  1_455   S
    C68    C70       1.48320      .   S
    C68    C66       1.40289      .   S
    C69    C71       1.48316      .   S
    C69    C67       1.40288      .   S
    C105   C107      1.48572      .   S
    C105   C103      1.40291      .   S
    C104   C106      1.48323      .   S
    C104   C102      1.40294      .   S
    C107   O177      1.29676      .   S
    C70    O152      1.29512      .   S
    C71    O153      1.29512      .   S
    C106   O176      1.29557      .   S
    N120   C102      1.34328  1_565   S
    N121   C103      1.34329  1_565   S
    N130   C66       1.34325      .   S
    N131   C67       1.34324      .   S
    C103   H23       1.09143      .   S
    C102   H22       1.09139      .   S
    C66    H10       1.09150      .   S
    C67    H11       1.09143      .   S
    O172   C100      1.29564      .   S
    O173   C101      1.29565      .   S
    O148   C64       1.29508      .   S
    O149   C65       1.29508      .   S
    C100   O175      1.26511      .   S
    C100   C98       1.48318      .   S
    C101   O174      1.26895  1_655   S
    C101   C99       1.48318      .   S
    C65    O151      1.26887      .   S
    C65    C63       1.48320      .   S
    C64    O150      1.26888      .   S
    C64    C62       1.48319      .   S
    H21    C97       1.09132      .   S
    H20    C96       1.09132      .   S
    H9     C61       1.09148      .   S
    H8     C60       1.09149      .   S
    C99    C97       1.40295      .   S
    C99    C111      1.39555      .   S
    C98    C96       1.40296      .   S
    C98    C110      1.39554      .   S
    C62    C60       1.40297      .   S
    C63    C61       1.40296      .   S
    C97    N123      1.34334      .   S
    C96    N122      1.34334      .   S
