# CIF file generated by openbabel 2.4.90, see http://openbabel.sf.net
data_I
_chemical_name_common ''
_cell_length_a 15.096
_cell_length_b 16.337
_cell_length_c 16.337
_cell_angle_alpha 119.849
_cell_angle_beta 90.001
_cell_angle_gamma 90.001
_space_group_name_H-M_alt 'P 1'
_space_group_name_Hall 'P 1'
loop_
    _symmetry_equiv_pos_as_xyz
    x,y,z
loop_
    _atom_site_label
    _atom_site_type_symbol
    _atom_site_fract_x
    _atom_site_fract_y
    _atom_site_fract_z
    _atom_site_occupancy
    Zr0     Zr   0.06717   0.66703   0.33319   1.000
    Zr1     Zr   0.56716   0.66703   0.33319   1.000
    Zr2     Zr   0.31724   0.33303   0.66686   1.000
    Zr3     Zr   0.81722   0.33303   0.66686   1.000
    Zr4     Zr   0.31724   0.66687   0.33303   1.000
    Zr5     Zr   0.81722   0.66687   0.33303   1.000
    Zr6     Zr   0.06717   0.33319   0.66703   1.000
    Zr7     Zr   0.56716   0.33319   0.66703   1.000
    N8      N    0.67894   0.41018   0.00036   1.000
    O9      O    0.65180   0.36297   0.85326   1.000
    O10     O    0.65184   0.51042   0.14729   1.000
    N11     N    0.42190   0.59398   0.99961   1.000
    O12     O    0.39846   0.63911   0.14677   1.000
    O13     O    0.39846   0.49166   0.85271   1.000
    N14     N    0.17896   0.41018   0.00036   1.000
    O15     O    0.15182   0.36297   0.85326   1.000
    O16     O    0.15186   0.51042   0.14729   1.000
    N17     N    0.92934   0.99971   0.58986   1.000
    O18     O    0.90217   0.14682   0.63705   1.000
    O19     O    0.90217   0.85276   0.48960   1.000
    N20     N    0.42935   0.99971   0.58990   1.000
    O21     O    0.40219   0.14682   0.63707   1.000
    O22     O    0.40219   0.85276   0.48961   1.000
    N23     N    0.43598   0.41789   0.40958   1.000
    O24     O    0.40553   0.51425   0.36272   1.000
    O25     O    0.40553   0.36688   0.51009   1.000
    N26     N    0.17896   0.00037   0.41018   1.000
    O27     O    0.15182   0.85326   0.36297   1.000
    O28     O    0.15186   0.14730   0.51042   1.000
    N29     N    0.93597   0.41789   0.40958   1.000
    O30     O    0.90552   0.51425   0.36272   1.000
    O31     O    0.90552   0.36688   0.51009   1.000
    N32     N    0.67894   0.00037   0.41017   1.000
    O33     O    0.65180   0.85326   0.36296   1.000
    O34     O    0.65184   0.14730   0.51042   1.000
    N35     N    0.67908   0.58988   0.58987   1.000
    O36     O    0.65192   0.63708   0.48972   1.000
    O37     O    0.65193   0.48972   0.63707   1.000
    N38     N    0.92189   0.59398   0.99967   1.000
    O39     O    0.89845   0.63911   0.14680   1.000
    O40     O    0.89845   0.49165   0.85274   1.000
    N41     N    0.17910   0.58988   0.58988   1.000
    O42     O    0.15194   0.63708   0.48972   1.000
    O43     O    0.15194   0.48972   0.63707   1.000
    O44     O    0.72868   0.51103   0.13700   1.000
    O45     O    0.72866   0.86340   0.37381   1.000
    O46     O    0.72876   0.62612   0.48900   1.000
    O47     O    0.97900   0.13665   0.62624   1.000
    O48     O    0.98234   0.37779   0.51073   1.000
    O49     O    0.97527   0.49111   0.86305   1.000
    O50     O    0.97900   0.86307   0.48905   1.000
    O51     O    0.98234   0.51489   0.37363   1.000
    O52     O    0.97528   0.62830   0.13662   1.000
    O53     O    0.47528   0.62830   0.13659   1.000
    O54     O    0.47900   0.86307   0.48907   1.000
    O55     O    0.48234   0.51489   0.37363   1.000
    O56     O    0.22870   0.13701   0.51103   1.000
    O57     O    0.22867   0.37381   0.86339   1.000
    O58     O    0.22877   0.48901   0.62612   1.000
    O59     O    0.72866   0.37381   0.86339   1.000
    O60     O    0.72868   0.13701   0.51102   1.000
    O61     O    0.72876   0.48901   0.62612   1.000
    O62     O    0.47528   0.49111   0.86291   1.000
    O63     O    0.47900   0.13665   0.62626   1.000
    O64     O    0.48234   0.37778   0.51073   1.000
    O65     O    0.22867   0.86340   0.37381   1.000
    O66     O    0.22870   0.51103   0.13700   1.000
    O67     O    0.22877   0.62612   0.48900   1.000
loop_
    _geom_bond_atom_site_label_1
    _geom_bond_atom_site_label_2
    _geom_bond_distance
    _geom_bond_site_symmetry_2
    _ccdc_geom_bond_type
    N8     O9        2.16630  1_554   S
    Zr7    O9        3.10675      .   S
    N8     O10       2.16758      .   S
    Zr1    O10       3.10958      .   S
    N11    O12       2.16433  1_556   S
    Zr4    O12       3.09760      .   S
    N11    O13       2.16464      .   S
    Zr2    O13       3.09919      .   S
    N14    O15       2.16630  1_554   S
    Zr6    O15       3.10675      .   S
    N14    O16       2.16758      .   S
    Zr0    O16       3.10959      .   S
    N17    O18       2.16666  1_565   S
    Zr3    O18       3.10834      .   S
    N17    O19       2.16796      .   S
    Zr5    O19       3.11082      .   S
    N20    O21       2.16670  1_565   S
    Zr2    O21       3.10841      .   S
    N20    O22       2.16801      .   S
    Zr4    O22       3.11091      .   S
    N23    O24       2.11542      .   S
    Zr4    O24       3.07127      .   S
    N23    O25       2.22802      .   S
    Zr2    O25       3.17047      .   S
    N26    O27       2.16633  1_545   S
    Zr0    O27       3.10685      .   S
    N26    O28       2.16754      .   S
    Zr6    O28       3.10953      .   S
    N29    O30       2.11542      .   S
    Zr5    O30       3.07129      .   S
    N29    O31       2.22804      .   S
    Zr3    O31       3.17051      .   S
    N32    O33       2.16633  1_545   S
    Zr1    O33       3.10687      .   S
    N32    O34       2.16755      .   S
    Zr7    O34       3.10954      .   S
    N35    O36       2.16697      .   S
    Zr1    O36       3.10832      .   S
    N35    O37       2.16708      .   S
    Zr7    O37       3.10844      .   S
    N38    O39       2.16384  1_556   S
    Zr5    O39       3.09713      .   S
    N38    O40       2.16502      .   S
    Zr3    O40       3.09949      .   S
    N41    O42       2.16701      .   S
    Zr0    O42       3.10837      .   S
    N41    O43       2.16705      .   S
    Zr6    O43       3.10841      .   S
    Zr5    O44       3.22612      .   S
    N8     O44       2.14493      .   S
    Zr5    O45       3.22658      .   S
    N32    O45       2.14478  1_545   S
    Zr5    O46       3.22606      .   S
    N35    O46       2.14477      .   S
    Zr6    O47       3.22413  1_455   S
    N17    O47       2.14410  1_565   S
    Zr6    O48       3.24694  1_455   S
    N29    O48       2.17434      .   S
    Zr6    O49       3.25760  1_455   S
    N38    O49       2.17299      .   S
    Zr0    O50       3.22412  1_455   S
    N17    O50       2.14426      .   S
    Zr0    O51       3.14467  1_455   S
    N29    O51       2.06700      .   S
    Zr0    O52       3.25798  1_455   S
    N38    O52       2.17279  1_556   S
    Zr1    O53       3.25833      .   S
    N11    O53       2.17321  1_556   S
    Zr1    O54       3.22410      .   S
    N20    O54       2.14428      .   S
    Zr1    O55       3.14459      .   S
    N23    O55       2.06697      .   S
    Zr2    O56       3.22603      .   S
    N26    O56       2.14488      .   S
    Zr2    O57       3.22654      .   S
    N14    O57       2.14476  1_554   S
    Zr2    O58       3.22616      .   S
    N41    O58       2.14476      .   S
    Zr3    O59       3.22654      .   S
    N8     O59       2.14476  1_554   S
    Zr3    O60       3.22605      .   S
    N32    O60       2.14489      .   S
    Zr3    O61       3.22620      .   S
    N35    O61       2.14479      .   S
    Zr7    O62       3.25612      .   S
    N11    O62       2.17377      .   S
    Zr7    O63       3.22411      .   S
    N20    O63       2.14412  1_565   S
    Zr7    O64       3.24684      .   S
    N23    O64       2.17429      .   S
    Zr4    O65       3.22658      .   S
    N26    O65       2.14477  1_545   S
    Zr4    O66       3.22611      .   S
    N14    O66       2.14493      .   S
    Zr4    O67       3.22615      .   S
    N41    O67       2.14475      .   S
