# CIF file generated by openbabel 2.4.90, see http://openbabel.sf.net
data_I
_chemical_name_common ''
_cell_length_a 15.096
_cell_length_b 16.337
_cell_length_c 16.337
_cell_angle_alpha 119.849
_cell_angle_beta 90.001
_cell_angle_gamma 90.001
_space_group_name_H-M_alt 'P 1'
_space_group_name_Hall 'P 1'
loop_
    _symmetry_equiv_pos_as_xyz
    x,y,z
loop_
    _atom_site_label
    _atom_site_type_symbol
    _atom_site_fract_x
    _atom_site_fract_y
    _atom_site_fract_z
    _atom_site_occupancy
    Zr0     Zr   0.06717   0.66703   0.33319   1.000
    Zr1     Zr   0.56716   0.66703   0.33319   1.000
    Zr2     Zr   0.31724   0.33303   0.66686   1.000
    Zr3     Zr   0.81722   0.33303   0.66686   1.000
    Zr4     Zr   0.31724   0.66687   0.33303   1.000
    Zr5     Zr   0.81722   0.66687   0.33303   1.000
    Zr6     Zr   0.06717   0.33319   0.66703   1.000
    Zr7     Zr   0.56716   0.33319   0.66703   1.000
    N8      N    0.67894   0.41018   0.00036   1.000
    O9      O    0.65180   0.36297   0.85326   1.000
    O10     O    0.71432   0.36293   0.85321   1.000
    O11     O    0.74299   0.38470   0.87356   1.000
    O12     O    0.74300   0.51169   0.12676   1.000
    O13     O    0.65184   0.51042   0.14729   1.000
    O14     O    0.71436   0.51038   0.14725   1.000
    N15     N    0.42190   0.59398   0.99961   1.000
    O16     O    0.48961   0.49053   0.87306   1.000
    O17     O    0.39846   0.63911   0.14677   1.000
    O18     O    0.46094   0.63915   0.14681   1.000
    O19     O    0.48962   0.61745   0.12638   1.000
    O20     O    0.39846   0.49166   0.85271   1.000
    O21     O    0.46094   0.49170   0.85275   1.000
    N22     N    0.17896   0.41018   0.00036   1.000
    O23     O    0.24301   0.38470   0.87356   1.000
    O24     O    0.15182   0.36297   0.85326   1.000
    O25     O    0.21433   0.36293   0.85321   1.000
    O26     O    0.15186   0.51042   0.14729   1.000
    O27     O    0.21437   0.51038   0.14725   1.000
    O28     O    0.24302   0.51169   0.12676   1.000
    N29     N    0.92934   0.99971   0.58986   1.000
    O30     O    0.99334   0.87334   0.48847   1.000
    O31     O    0.90217   0.14682   0.63705   1.000
    O32     O    0.96466   0.14686   0.63709   1.000
    O33     O    0.99335   0.12645   0.61539   1.000
    O34     O    0.90217   0.85276   0.48960   1.000
    O35     O    0.96466   0.85280   0.48964   1.000
    N36     N    0.42935   0.99971   0.58990   1.000
    O37     O    0.40219   0.14682   0.63707   1.000
    O38     O    0.46467   0.14686   0.63711   1.000
    O39     O    0.49334   0.12645   0.61541   1.000
    O40     O    0.49334   0.87334   0.48849   1.000
    O41     O    0.40219   0.85276   0.48961   1.000
    O42     O    0.46467   0.85280   0.48965   1.000
    N43     N    0.43598   0.41789   0.40958   1.000
    O44     O    0.40553   0.51425   0.36272   1.000
    O45     O    0.46801   0.51429   0.36276   1.000
    O46     O    0.49667   0.38865   0.51133   1.000
    O47     O    0.49667   0.51549   0.38449   1.000
    O48     O    0.40553   0.36688   0.51009   1.000
    O49     O    0.46801   0.36692   0.51013   1.000
    N50     N    0.17896   0.00037   0.41018   1.000
    O51     O    0.24302   0.12677   0.51168   1.000
    O52     O    0.15182   0.85326   0.36297   1.000
    O53     O    0.21433   0.85322   0.36293   1.000
    O54     O    0.15186   0.14730   0.51042   1.000
    O55     O    0.21437   0.14726   0.51038   1.000
    O56     O    0.24301   0.87357   0.38470   1.000
    N57     N    0.93597   0.41789   0.40958   1.000
    O58     O    0.99667   0.38865   0.51133   1.000
    O59     O    0.90552   0.51425   0.36272   1.000
    O60     O    0.96801   0.51429   0.36276   1.000
    O61     O    0.99667   0.51549   0.38449   1.000
    O62     O    0.90552   0.36688   0.51009   1.000
    O63     O    0.96801   0.36692   0.51013   1.000
    N64     N    0.67894   0.00037   0.41017   1.000
    O65     O    0.65180   0.85326   0.36296   1.000
    O66     O    0.71432   0.85322   0.36292   1.000
    O67     O    0.74299   0.87357   0.38469   1.000
    O68     O    0.65184   0.14730   0.51042   1.000
    O69     O    0.71436   0.14726   0.51037   1.000
    O70     O    0.74300   0.12677   0.51167   1.000
    N71     N    0.67908   0.58988   0.58987   1.000
    O72     O    0.74308   0.61521   0.48832   1.000
    O73     O    0.65192   0.63708   0.48972   1.000
    O74     O    0.71444   0.63704   0.48968   1.000
    O75     O    0.65193   0.48972   0.63707   1.000
    O76     O    0.71444   0.48968   0.63703   1.000
    O77     O    0.74308   0.48833   0.61520   1.000
    N78     N    0.92189   0.59398   0.99967   1.000
    O79     O    0.89845   0.63911   0.14680   1.000
    O80     O    0.96093   0.63915   0.14684   1.000
    O81     O    0.89845   0.49165   0.85274   1.000
    O82     O    0.96093   0.49169   0.85278   1.000
    O83     O    0.98962   0.61745   0.12641   1.000
    O84     O    0.98961   0.49053   0.87332   1.000
    N85     N    0.17910   0.58988   0.58988   1.000
    O86     O    0.24309   0.48833   0.61521   1.000
    O87     O    0.15194   0.63708   0.48972   1.000
    O88     O    0.21446   0.63704   0.48968   1.000
    O89     O    0.15194   0.48972   0.63707   1.000
    O90     O    0.21446   0.48968   0.63703   1.000
    O91     O    0.24309   0.61521   0.48833   1.000
loop_
    _geom_bond_atom_site_label_1
    _geom_bond_atom_site_label_2
    _geom_bond_distance
    _geom_bond_site_symmetry_2
    _ccdc_geom_bond_type
    N8     O9        2.16630  1_554   S
    Zr7    O9        3.10675      .   S
    N8     O10       2.19375  1_554   S
    Zr3    O10       3.23115      .   S
    N8     O11       2.13092  1_554   S
    Zr3    O11       3.24563      .   S
    N8     O12       2.13088      .   S
    Zr5    O12       3.24564      .   S
    N8     O13       2.16758      .   S
    Zr1    O13       3.10958      .   S
    N8     O14       2.19411      .   S
    Zr5    O14       3.23030      .   S
    N15    O16       2.16734      .   S
    Zr7    O16       3.27032      .   S
    N15    O17       2.16433  1_556   S
    Zr4    O17       3.09760      .   S
    N15    O18       2.21550  1_556   S
    Zr1    O18       3.26639      .   S
    N15    O19       2.16578  1_556   S
    Zr1    O19       3.27377      .   S
    N15    O20       2.16464      .   S
    Zr2    O20       3.09919      .   S
    N15    O21       2.21478      .   S
    Zr7    O21       3.26523      .   S
    N22    O23       2.13092  1_554   S
    Zr2    O23       3.24563      .   S
    N22    O24       2.16630  1_554   S
    Zr6    O24       3.10675      .   S
    N22    O25       2.19375  1_554   S
    Zr2    O25       3.23115      .   S
    N22    O26       2.16758      .   S
    Zr0    O26       3.10959      .   S
    N22    O27       2.19411      .   S
    Zr4    O27       3.23029      .   S
    N22    O28       2.13088      .   S
    Zr4    O28       3.24563      .   S
    N29    O30       2.12966      .   S
    Zr0    O30       3.24445  1_455   S
    N29    O31       2.16666  1_565   S
    Zr3    O31       3.10834      .   S
    N29    O32       2.19374  1_565   S
    Zr6    O32       3.22775  1_455   S
    N29    O33       2.12960  1_565   S
    Zr6    O33       3.24424  1_455   S
    N29    O34       2.16796      .   S
    Zr5    O34       3.11082      .   S
    N29    O35       2.19400      .   S
    Zr0    O35       3.22750  1_455   S
    N36    O37       2.16670  1_565   S
    Zr2    O37       3.10841      .   S
    N36    O38       2.19377  1_565   S
    Zr7    O38       3.22769      .   S
    N36    O39       2.12959  1_565   S
    Zr7    O39       3.24424      .   S
    N36    O40       2.12965      .   S
    Zr1    O40       3.24446      .   S
    N36    O41       2.16801      .   S
    Zr4    O41       3.11091      .   S
    N36    O42       2.19403      .   S
    Zr1    O42       3.22745      .   S
    N43    O44       2.11542      .   S
    Zr4    O44       3.07127      .   S
    N43    O45       2.12085      .   S
    Zr1    O45       3.14650      .   S
    N43    O46       2.14970      .   S
    Zr7    O46       3.27372      .   S
    N43    O47       2.04940      .   S
    Zr1    O47       3.16698      .   S
    N43    O48       2.22802      .   S
    Zr2    O48       3.17047      .   S
    N43    O49       2.23320      .   S
    Zr7    O49       3.24345      .   S
    N50    O51       2.13084      .   S
    Zr2    O51       3.24555      .   S
    N50    O52       2.16633  1_545   S
    Zr0    O52       3.10685      .   S
    N50    O53       2.19376  1_545   S
    Zr4    O53       3.23119      .   S
    N50    O54       2.16754      .   S
    Zr6    O54       3.10953      .   S
    N50    O55       2.19406      .   S
    Zr2    O55       3.23022      .   S
    N50    O56       2.13092  1_545   S
    Zr4    O56       3.24567      .   S
    N57    O58       2.14978      .   S
    Zr6    O58       3.27379  1_455   S
    N57    O59       2.11542      .   S
    Zr5    O59       3.07129      .   S
    N57    O60       2.12085      .   S
    Zr0    O60       3.14663  1_455   S
    N57    O61       2.04947      .   S
    Zr0    O61       3.16702  1_455   S
    N57    O62       2.22804      .   S
    Zr3    O62       3.17051      .   S
    N57    O63       2.23322      .   S
    Zr6    O63       3.24360  1_455   S
    N64    O65       2.16633  1_545   S
    Zr1    O65       3.10687      .   S
    N64    O66       2.19376  1_545   S
    Zr5    O66       3.23120      .   S
    N64    O67       2.13093  1_545   S
    Zr5    O67       3.24568      .   S
    N64    O68       2.16755      .   S
    Zr7    O68       3.10954      .   S
    N64    O69       2.19407      .   S
    Zr3    O69       3.23024      .   S
    N64    O70       2.13085      .   S
    Zr3    O70       3.24556      .   S
    N71    O72       2.13080      .   S
    Zr5    O72       3.24539      .   S
    N71    O73       2.16697      .   S
    Zr1    O73       3.10832      .   S
    N71    O74       2.19388      .   S
    Zr5    O74       3.23043      .   S
    N71    O75       2.16708      .   S
    Zr7    O75       3.10844      .   S
    N71    O76       2.19397      .   S
    Zr3    O76       3.23050      .   S
    N71    O77       2.13076      .   S
    Zr3    O77       3.24560      .   S
    N78    O79       2.16384  1_556   S
    Zr5    O79       3.09713      .   S
    N78    O80       2.21504  1_556   S
    Zr0    O80       3.26609  1_455   S
    N78    O81       2.16502      .   S
    Zr3    O81       3.09949      .   S
    N78    O82       2.21516      .   S
    Zr6    O82       3.26566  1_455   S
    N78    O83       2.16542  1_556   S
    Zr0    O83       3.27336  1_455   S
    N78    O84       2.16567      .   S
    Zr6    O84       3.27304  1_455   S
    N85    O86       2.13073      .   S
    Zr2    O86       3.24556      .   S
    N85    O87       2.16701      .   S
    Zr0    O87       3.10837      .   S
    N85    O88       2.19391      .   S
    Zr4    O88       3.23046      .   S
    N85    O89       2.16705      .   S
    Zr6    O89       3.10841      .   S
    N85    O90       2.19393      .   S
    Zr2    O90       3.23047      .   S
    N85    O91       2.13073      .   S
    Zr4    O91       3.24554      .   S
