# CIF file generated by openbabel 2.4.90, see http://openbabel.sf.net
data_I
_chemical_name_common ''
_cell_length_a 6.902
_cell_length_b 7.896
_cell_length_c 10.093
_cell_angle_alpha 93.851
_cell_angle_beta 109.485
_cell_angle_gamma 105.528
_space_group_name_H-M_alt 'P 1'
_space_group_name_Hall 'P 1'
loop_
    _symmetry_equiv_pos_as_xyz
    x,y,z
loop_
    _atom_site_label
    _atom_site_type_symbol
    _atom_site_fract_x
    _atom_site_fract_y
    _atom_site_fract_z
    _atom_site_occupancy
    H0      H    0.44517   0.60202   0.79817   1.000
    H1      H    0.44518   0.60202   0.29819   1.000
    H2      H    0.94136   0.49310   0.47989   1.000
    H3      H    0.94136   0.49310   0.00000   1.000
    C4      C    0.23174   0.33953   0.75475   1.000
    C5      C    0.23175   0.33952   0.25477   1.000
    C6      C    0.30707   0.51537   0.81549   1.000
    C7      C    0.30708   0.51537   0.31550   1.000
    C8      C    0.20687   0.58256   0.90257   1.000
    C9      C    0.20688   0.58256   0.40258   1.000
    C10     C    0.02657   0.45301   0.91639   1.000
    C11     C    0.02656   0.45301   0.41640   1.000
    C12     C    0.96237   0.28030   0.85203   1.000
    C13     C    0.96237   0.28030   0.35204   1.000
    O14     O    0.06119   0.22150   0.77142   1.000
    O15     O    0.06120   0.22150   0.27143   1.000
    O16     O    0.26620   0.74158   0.46717   1.000
    O17     O    0.26622   0.74158   0.00000   1.000
loop_
    _geom_bond_atom_site_label_1
    _geom_bond_atom_site_label_2
    _geom_bond_distance
    _geom_bond_site_symmetry_2
    _ccdc_geom_bond_type
    O17    C8        1.41472  1_554   S
    H3     C10       1.24621  1_654   S
    C5     O15       1.35951      .   S
    C5     C7        1.36398      .   S
    O15    C13       1.35347  1_455   S
    H1     C7        1.08870      .   S
    C7     C9        1.43926      .   S
    C13    C11       1.35771  1_655   S
    C9     C11       1.43804      .   S
    C9     O16       1.26728      .   S
    C11    H2        1.08652  1_455   S
    C4     O14       1.35951      .   S
    C4     C6        1.36398      .   S
    O14    C12       1.35346  1_455   S
    H0     C6        1.08870      .   S
    C6     C8        1.43927      .   S
    C12    C10       1.35770  1_655   S
    C8     C10       1.43805      .   S
