# CIF file generated by openbabel 2.4.90, see http://openbabel.sf.net
data_I
_chemical_name_common ''
_cell_length_a 6.902
_cell_length_b 7.896
_cell_length_c 10.093
_cell_angle_alpha 93.851
_cell_angle_beta 109.485
_cell_angle_gamma 105.528
_space_group_name_H-M_alt 'P 1'
_space_group_name_Hall 'P 1'
loop_
    _symmetry_equiv_pos_as_xyz
    x,y,z
loop_
    _atom_site_label
    _atom_site_type_symbol
    _atom_site_fract_x
    _atom_site_fract_y
    _atom_site_fract_z
    _atom_site_occupancy
    C0      C    0.33280   0.25545   0.66736   1.000
    C1      C    0.33281   0.25544   0.16737   1.000
    C2      C    0.77514   0.13877   0.86381   1.000
    C3      C    0.77515   0.13877   0.36382   1.000
