# CIF file generated by openbabel 2.4.90, see http://openbabel.sf.net
data_I
_chemical_name_common ''
_cell_length_a 6.902
_cell_length_b 7.896
_cell_length_c 10.093
_cell_angle_alpha 93.851
_cell_angle_beta 109.485
_cell_angle_gamma 105.528
_space_group_name_H-M_alt 'P 1'
_space_group_name_Hall 'P 1'
loop_
    _symmetry_equiv_pos_as_xyz
    x,y,z
loop_
    _atom_site_label
    _atom_site_type_symbol
    _atom_site_fract_x
    _atom_site_fract_y
    _atom_site_fract_z
    _atom_site_occupancy
    Zr0     Zr   0.48050   0.02006   0.03596   1.000
    Zr1     Zr   0.48050   0.02007   0.53594   1.000
    N2      N    0.14779   0.43592   0.85135   1.000
    O3      O    0.31979   0.81120   0.00899   1.000
    N4      N    0.14780   0.43592   0.34885   1.000
    O5      O    0.31978   0.81120   0.48436   1.000
    C6      C    0.35745   0.23179   0.64563   1.000
    O7      O    0.28624   0.29925   0.71341   1.000
    O8      O    0.35708   0.14378   0.60886   1.000
    C9      C    0.72858   0.10614   0.86959   1.000
    O10     O    0.65263   0.05846   0.76112   1.000
    O11     O    0.66885   0.10262   0.93769   1.000
    O12     O    0.86843   0.21443   0.86212   1.000
    C13     C    0.35746   0.23179   0.14564   1.000
    O14     O    0.35708   0.14378   0.10888   1.000
    O15     O    0.28625   0.29925   0.21280   1.000
    C16     C    0.72858   0.10614   0.36960   1.000
    O17     O    0.66885   0.10262   0.43769   1.000
    O18     O    0.86843   0.21443   0.36150   1.000
    O19     O    0.65263   0.05846   0.26113   1.000
loop_
    _geom_bond_atom_site_label_1
    _geom_bond_atom_site_label_2
    _geom_bond_distance
    _geom_bond_site_symmetry_2
    _ccdc_geom_bond_type
    N2     O3        2.99072  1_556   S
    Zr0    O3        1.66826  1_545   S
    N4     O5        2.92398      .   S
    Zr1    O5        1.65568  1_545   S
    C6     O7        1.14408      .   S
    N2     O7        2.29212      .   S
    C6     O8        0.76444      .   S
    Zr1    O8        1.72883      .   S
    C9     O10       1.03500      .   S
    Zr1    O10       2.14057      .   S
    C9     O11       0.91023      .   S
    Zr0    O11       1.89522  1_554   S
    C9     O12       1.13310      .   S
    N2     O12       2.26893  1_455   S
    C13    O14       0.76445      .   S
    Zr0    O14       1.72885      .   S
    C13    O15       1.13958      .   S
    N4     O15       2.27855      .   S
    C16    O17       0.91018      .   S
    Zr1    O17       1.89510      .   S
    C16    O18       1.13566      .   S
    N4     O18       2.27628  1_455   S
    C16    O19       1.03499      .   S
    Zr0    O19       2.14054      .   S
