# CIF file generated by openbabel 2.4.90, see http://openbabel.sf.net
data_I
_chemical_name_common ''
_cell_length_a 6.902
_cell_length_b 7.896
_cell_length_c 10.093
_cell_angle_alpha 93.851
_cell_angle_beta 109.485
_cell_angle_gamma 105.528
_space_group_name_H-M_alt 'P 1'
_space_group_name_Hall 'P 1'
loop_
    _symmetry_equiv_pos_as_xyz
    x,y,z
loop_
    _atom_site_label
    _atom_site_type_symbol
    _atom_site_fract_x
    _atom_site_fract_y
    _atom_site_fract_z
    _atom_site_occupancy
    Zr0     Zr   0.48050   0.02006   0.03596   1.000
    Zr1     Zr   0.48050   0.02007   0.53594   1.000
    Zr2     Zr   0.33280   0.25545   0.66736   1.000
    Zr3     Zr   0.33281   0.25544   0.16737   1.000
    Zr4     Zr   0.77514   0.13877   0.86381   1.000
    Zr5     Zr   0.77515   0.13877   0.36382   1.000
    Zr6     Zr   0.23291   0.09148   0.60826   1.000
    Zr7     Zr   0.23292   0.09148   0.10828   1.000
    Zr8     Zr   0.50664   0.34845   0.66126   1.000
    Zr9     Zr   0.50664   0.34845   0.16127   1.000
    Zr10    Zr   0.67285   0.00150   0.76936   1.000
    Zr11    Zr   0.67285   0.00151   0.26937   1.000
    Zr12    Zr   0.73774   0.17814   0.97561   1.000
    Zr13    Zr   0.73775   0.17814   0.47562   1.000
    O14     O    0.35671   0.05577   0.07212   1.000
    O15     O    0.57668   0.01078   0.15266   1.000
    O16     O    0.60912   0.09910   0.00578   1.000
    O17     O    0.28286   0.17346   0.13782   1.000
    O18     O    0.41973   0.30195   0.16432   1.000
    O19     O    0.72400   0.07014   0.31660   1.000
    O20     O    0.75645   0.15845   0.41972   1.000
    O21     O    0.60912   0.09910   0.50578   1.000
    O22     O    0.35670   0.05578   0.57210   1.000
    O23     O    0.57667   0.01079   0.65265   1.000
    O24     O    0.28285   0.17347   0.63781   1.000
    O25     O    0.41972   0.30195   0.66431   1.000
    O26     O    0.72400   0.07014   0.81658   1.000
    O27     O    0.75644   0.15845   0.91971   1.000
    N28     N    0.14779   0.43592   0.85135   1.000
    O29     O    0.21503   0.36670   0.78120   1.000
    O30     O    0.00828   0.32273   0.85464   1.000
    O31     O    0.31979   0.81120   0.00899   1.000
    N32     N    0.14780   0.43592   0.34885   1.000
    O33     O    0.21504   0.36670   0.27996   1.000
    O34     O    0.00828   0.32273   0.35339   1.000
    O35     O    0.31978   0.81120   0.48436   1.000
loop_
    _geom_bond_atom_site_label_1
    _geom_bond_atom_site_label_2
    _geom_bond_distance
    _geom_bond_site_symmetry_2
    _ccdc_geom_bond_type
    Zr0    O14       1.12515      .   S
    Zr7    O14       1.12515      .   S
    Zr0    O15       1.16167      .   S
    Zr11   O15       1.16167      .   S
    Zr0    O16       1.08607      .   S
    Zr12   O16       1.08607  1_556   S
    Zr7    O17       0.64251      .   S
    Zr3    O17       0.64251      .   S
    Zr9    O18       0.62575      .   S
    Zr3    O18       0.62575      .   S
    Zr11   O19       0.62937      .   S
    Zr5    O19       0.62937      .   S
    Zr5    O20       0.63771      .   S
    Zr13   O20       0.63771      .   S
    Zr13   O21       1.08602      .   S
    Zr1    O21       1.08602      .   S
    Zr1    O22       1.12514      .   S
    Zr6    O22       1.12514      .   S
    Zr1    O23       1.16171      .   S
    Zr10   O23       1.16171      .   S
    Zr6    O24       0.64251      .   S
    Zr2    O24       0.64251      .   S
    Zr8    O25       0.62576      .   S
    Zr2    O25       0.62576      .   S
    Zr10   O26       0.62936      .   S
    Zr4    O26       0.62936      .   S
    Zr4    O27       0.63771      .   S
    Zr12   O27       0.63771      .   S
    N28    O29       1.14821      .   S
    Zr2    O29       1.90331      .   S
    N28    O30       1.13653      .   S
    Zr4    O30       1.89041  1_655   S
    N28    O31       2.99072  1_556   S
    Zr0    O31       1.66826  1_545   S
    N32    O33       1.13912      .   S
    Zr3    O33       1.89427      .   S
    N32    O34       1.14121      .   S
    Zr5    O34       1.89531  1_655   S
    N32    O35       2.92398      .   S
    Zr1    O35       1.65568  1_545   S
