# CIF file generated by openbabel 2.4.90, see http://openbabel.sf.net
data_I
_chemical_name_common ''
_cell_length_a 14.273
_cell_length_b 15.94
_cell_length_c 19.73
_cell_angle_alpha 110.743
_cell_angle_beta 89.833
_cell_angle_gamma 116.784
_space_group_name_H-M_alt 'P 1'
_space_group_name_Hall 'P 1'
loop_
    _symmetry_equiv_pos_as_xyz
    x,y,z
loop_
    _atom_site_label
    _atom_site_type_symbol
    _atom_site_fract_x
    _atom_site_fract_y
    _atom_site_fract_z
    _atom_site_occupancy
    H0      H    0.52391   0.77938   0.71979   1.000
    H1      H    0.39996   0.85408   0.74130   1.000
    H2      H    0.20268   0.73616   0.71837   1.000
    H3      H    0.16045   0.24918   0.70721   1.000
    H4      H    0.16753   0.15441   0.57731   1.000
    H5      H    0.22625   0.24785   0.49346   1.000
    H6      H    0.15610   0.63294   0.04138   1.000
    H7      H    0.24679   0.82333   0.08858   1.000
    H8      H    0.24916   0.79504   0.86249   1.000
    H9      H    0.14983   0.60513   0.82349   1.000
    H10     H    0.34051   0.30353   0.18026   1.000
    H11     H    0.23480   0.11162   0.13560   1.000
    H12     H    0.50216   0.09530   0.04042   1.000
    H13     H    0.60001   0.28808   0.09353   1.000
    H14     H    0.74285   0.22082   0.78050   1.000
    H15     H    0.54391   0.14644   0.75911   1.000
    H16     H    0.46542   0.26455   0.78201   1.000
    H17     H    0.91271   0.75095   0.79264   1.000
    H18     H    0.00000   0.84574   0.92222   1.000
    H19     H    0.98050   0.75238   0.00602   1.000
    H20     H    0.52199   0.36776   0.45891   1.000
    H21     H    0.42228   0.17737   0.41141   1.000
    H22     H    0.45478   0.20480   0.63715   1.000
    H23     H    0.54536   0.39476   0.67650   1.000
    H24     H    0.03736   0.69591   0.31900   1.000
    H25     H    0.12354   0.88774   0.36366   1.000
    H26     H    0.40714   0.90555   0.45943   1.000
    H27     H    0.31225   0.71281   0.40635   1.000
    H28     H    0.47612   0.22063   0.28004   1.000
    H29     H    0.60006   0.14592   0.25844   1.000
    H30     H    0.79733   0.26383   0.28143   1.000
    H31     H    0.83953   0.75083   0.29262   1.000
    H32     H    0.83247   0.84559   0.42253   1.000
    H33     H    0.77379   0.75214   0.50637   1.000
    H34     H    0.84392   0.36708   0.95845   1.000
    H35     H    0.75324   0.17669   0.91125   1.000
    H36     H    0.75087   0.20497   0.13733   1.000
    H37     H    0.85018   0.39489   0.17634   1.000
    H38     H    0.65951   0.69648   0.81958   1.000
    H39     H    0.76521   0.88839   0.86421   1.000
    H40     H    0.49787   0.90473   0.95941   1.000
    H41     H    0.40003   0.71195   0.90633   1.000
    H42     H    0.25717   0.77919   0.21932   1.000
    H43     H    0.45611   0.85358   0.24075   1.000
    H44     H    0.53460   0.73547   0.21782   1.000
    H45     H    0.08728   0.24907   0.20719   1.000
    H46     H    0.98479   0.15428   0.07760   1.000
    H47     H    0.01952   0.24763   0.99380   1.000
    H48     H    0.47800   0.63222   0.54091   1.000
    H49     H    0.57768   0.82261   0.58843   1.000
    H50     H    0.54520   0.79522   0.36270   1.000
    H51     H    0.45465   0.60526   0.32327   1.000
    H52     H    0.96265   0.30409   0.68084   1.000
    H53     H    0.87646   0.11226   0.63617   1.000
    H54     H    0.59286   0.09448   0.54043   1.000
    H55     H    0.68776   0.28722   0.59351   1.000
    C56     C    0.47540   0.58409   0.67593   1.000
    C57     C    0.39801   0.62505   0.68928   1.000
    C58     C    0.43793   0.73044   0.71159   1.000
    C59     C    0.36876   0.77179   0.72330   1.000
    C60     C    0.25933   0.70678   0.71107   1.000
    C61     C    0.21773   0.60069   0.68730   1.000
    C62     C    0.28724   0.55803   0.67619   1.000
    C63     C    0.09893   0.53521   0.67343   1.000
    C64     C    0.21338   0.44249   0.77519   1.000
    C65     C    0.21718   0.39229   0.69569   1.000
    C66     C    0.18588   0.28788   0.66947   1.000
    C67     C    0.18974   0.23525   0.59700   1.000
    C68     C    0.22230   0.28683   0.55031   1.000
    C69     C    0.25079   0.39070   0.57458   1.000
    C70     C    0.24935   0.44533   0.64847   1.000
    C71     C    0.28093   0.44014   0.51940   1.000
    C72     C    0.17691   0.67131   0.00344   1.000
    C73     C    0.22736   0.77729   0.02959   1.000
    C74     C    0.25529   0.82346   0.97883   1.000
    C75     C    0.22873   0.76155   0.90337   1.000
    C76     C    0.17498   0.65611   0.88148   1.000
    C77     C    0.37311   0.25432   0.14972   1.000
    C78     C    0.31493   0.14857   0.12450   1.000
    C79     C    0.35991   0.08957   0.08313   1.000
    C80     C    0.46399   0.13902   0.07069   1.000
    C81     C    0.51820   0.24526   0.09985   1.000
    C82     C    0.89085   0.41609   0.82410   1.000
    C83     C    0.77232   0.37524   0.81095   1.000
    C84     C    0.70621   0.26988   0.78874   1.000
    C85     C    0.59552   0.22870   0.77702   1.000
    C86     C    0.55157   0.29382   0.78930   1.000
    C87     C    0.61669   0.39988   0.81299   1.000
    C88     C    0.72904   0.44236   0.82400   1.000
    C89     C    0.56382   0.46550   0.82682   1.000
    C90     C    0.77138   0.55754   0.72496   1.000
    C91     C    0.82564   0.60792   0.80433   1.000
    O92     O    0.91983   0.61042   0.03766   1.000
    O93     O    0.46311   0.39228   0.36853   1.000
    O94     O    0.52179   0.47138   0.29159   1.000
    O95     O    0.70284   0.48079   0.17941   1.000
    C96     C    0.89929   0.71230   0.83038   1.000
    C97     C    0.95618   0.76492   0.90261   1.000
    C98     C    0.93712   0.71338   0.94935   1.000
    C99     C    0.86114   0.60958   0.92527   1.000
    C100    C    0.80454   0.55498   0.85159   1.000
    C101    C    0.84182   0.56016   0.98044   1.000
    C102    C    0.50480   0.32922   0.49672   1.000
    C103    C    0.44928   0.22322   0.47039   1.000
    C104    C    0.43167   0.17679   0.52096   1.000
    C105    C    0.46742   0.23849   0.59643   1.000
    C106    C    0.51910   0.34396   0.61853   1.000
    C107    C    0.11915   0.74541   0.34960   1.000
    C108    C    0.16671   0.85113   0.37488   1.000
    C109    C    0.27064   0.91055   0.41643   1.000
    C110    C    0.32526   0.86152   0.42901   1.000
    C111    C    0.27325   0.75528   0.39980   1.000
    C112    C    0.52463   0.41592   0.32389   1.000
    C113    C    0.60202   0.37496   0.31054   1.000
    C114    C    0.56209   0.26956   0.28824   1.000
    C115    C    0.63126   0.22821   0.27643   1.000
    C116    C    0.74068   0.29321   0.28870   1.000
    C117    C    0.78229   0.39930   0.31251   1.000
    C118    C    0.71278   0.44197   0.32360   1.000
    C119    C    0.90109   0.46478   0.32638   1.000
    C120    C    0.78665   0.55752   0.22465   1.000
    C121    C    0.78283   0.60772   0.30414   1.000
    C122    C    0.81413   0.71213   0.33036   1.000
    C123    C    0.81027   0.76475   0.40277   1.000
    C124    C    0.77773   0.71316   0.44952   1.000
    C125    C    0.74925   0.60930   0.42524   1.000
    C126    C    0.75068   0.55467   0.35136   1.000
    C127    C    0.71913   0.55984   0.48040   1.000
    C128    C    0.82311   0.32871   0.99639   1.000
    C129    C    0.77267   0.22273   0.97023   1.000
    C130    C    0.74474   0.17656   0.02100   1.000
    C131    C    0.77130   0.23847   0.09646   1.000
    C132    C    0.82504   0.34391   0.11835   1.000
    C133    C    0.62691   0.74570   0.85012   1.000
    C134    C    0.68508   0.85144   0.87532   1.000
    C135    C    0.64011   0.91045   0.91600   1.000
    C136    C    0.53604   0.86100   0.92914   1.000
    C137    C    0.48183   0.75476   0.89999   1.000
    C138    C    0.10917   0.58392   0.17568   1.000
    C139    C    0.22770   0.62477   0.18887   1.000
    C140    C    0.29382   0.73014   0.21110   1.000
    C141    C    0.40450   0.77132   0.22282   1.000
    C142    C    0.44845   0.70620   0.21053   1.000
    C143    C    0.38333   0.60013   0.18682   1.000
    C144    C    0.27099   0.55765   0.17577   1.000
    C145    C    0.43619   0.53451   0.17300   1.000
    C146    C    0.22863   0.44248   0.27486   1.000
    C147    C    0.17437   0.39210   0.19549   1.000
    C148    C    0.10071   0.28772   0.16945   1.000
    C149    C    0.04382   0.23509   0.09722   1.000
    C150    C    0.06289   0.28663   0.05047   1.000
    C151    C    0.13888   0.39043   0.07455   1.000
    C152    C    0.19547   0.44503   0.14823   1.000
    C153    C    0.15820   0.43985   0.01938   1.000
    C154    C    0.49518   0.67076   0.50310   1.000
    C155    C    0.55069   0.77677   0.52944   1.000
    C156    C    0.56831   0.82321   0.47889   1.000
    C157    C    0.53256   0.76152   0.40341   1.000
    C158    C    0.48089   0.65605   0.38130   1.000
    C159    C    0.88085   0.25459   0.65010   1.000
    C160    C    0.83329   0.14888   0.62496   1.000
    C161    C    0.72935   0.08946   0.58342   1.000
    C162    C    0.67474   0.13850   0.57085   1.000
    C163    C    0.72676   0.24474   0.59999   1.000
    N164    N    0.15173   0.61159   0.93055   1.000
    N165    N    0.31413   0.93093   0.99940   1.000
    N166    N    0.29676   0.98209   0.05900   1.000
    N167    N    0.47359   0.30195   0.13803   1.000
    N168    N    0.53994   0.38873   0.56962   1.000
    N169    N    0.38328   0.06935   0.50020   1.000
    N170    N    0.31483   0.01798   0.44030   1.000
    N171    N    0.17198   0.69820   0.36154   1.000
    N172    N    0.84828   0.38843   0.06920   1.000
    N173    N    0.68591   0.06909   0.00000   1.000
    N174    N    0.70325   0.01793   0.94052   1.000
    N175    N    0.52644   0.69808   0.86181   1.000
    N176    N    0.46006   0.61127   0.43020   1.000
    N177    N    0.61668   0.93066   0.49965   1.000
    N178    N    0.68516   0.98203   0.55951   1.000
    N179    N    0.82803   0.30182   0.63831   1.000
    O180    O    0.53688   0.60769   0.63126   1.000
    O181    O    0.47828   0.52867   0.70826   1.000
    O182    O    0.29719   0.51924   0.82041   1.000
    O183    O    0.12353   0.40302   0.79440   1.000
    O184    O    0.04263   0.58172   0.69618   1.000
    O185    O    0.05648   0.43954   0.64405   1.000
    O186    O    0.28122   0.52175   0.52984   1.000
    O187    O    0.30671   0.38905   0.46130   1.000
    O188    O    0.92835   0.39280   0.86896   1.000
    O189    O    0.94964   0.47119   0.79150   1.000
    O190    O    0.77832   0.48086   0.67963   1.000
    O191    O    0.72092   0.59674   0.70596   1.000
    O192    O    0.46086   0.41893   0.80402   1.000
    O193    O    0.61743   0.56113   0.85622   1.000
    O194    O    0.75948   0.47934   0.97078   1.000
    O195    O    0.87651   0.59698   0.20546   1.000
    O196    O    0.95739   0.41827   0.30360   1.000
    O197    O    0.94354   0.56045   0.35576   1.000
    O198    O    0.71889   0.47825   0.46990   1.000
    O199    O    0.69329   0.61090   0.53850   1.000
    O200    O    0.07166   0.60719   0.13085   1.000
    O201    O    0.05040   0.52885   0.20827   1.000
    O202    O    0.22172   0.51918   0.32019   1.000
    O203    O    0.27906   0.40326   0.29387   1.000
    O204    O    0.53916   0.58107   0.19570   1.000
    O205    O    0.38257   0.43888   0.14362   1.000
    O206    O    0.24055   0.52065   0.02902   1.000
    O207    O    0.08014   0.38961   0.96219   1.000
loop_
    _geom_bond_atom_site_label_1
    _geom_bond_atom_site_label_2
    _geom_bond_distance
    _geom_bond_site_symmetry_2
    _ccdc_geom_bond_type
    N173   C130      1.41920      .   S
    N173   N174      1.26720  1_554   S
    C72    C73       1.38811      .   S
    C72    H6        1.08722      .   S
    C72    N164      1.35224  1_554   S
    H19    C98       1.08846  1_554   S
    C153   O206      1.24094      .   S
    C153   C151      1.51366      .   S
    C153   O207      1.31105  1_554   S
    C130   C131      1.39983      .   S
    C130   C129      1.39977  1_554   S
    C73    H7        1.08789      .   S
    C73    C74       1.39955  1_554   S
    O92    C101      1.31108  1_554   S
    H12    C80       1.08852      .   S
    C150   C151      1.40306      .   S
    C150   C149      1.39050      .   S
    C150   H47       1.08842  1_554   S
    N166   C79       1.41681  1_565   S
    N166   N165      1.26905  1_554   S
    N172   C132      1.35184      .   S
    N172   C128      1.35094  1_554   S
    C80    C79       1.40275      .   S
    C80    C81       1.38890      .   S
    C151   C152      1.41430      .   S
    H46    C149      1.09071  1_655   S
    C79    C78       1.40014      .   S
    H13    C81       1.08902      .   S
    C131   C132      1.38767      .   S
    C131   H36       1.08793      .   S
    C149   C148      1.39280      .   S
    C81    N167      1.35009      .   S
    C132   H37       1.08589      .   S
    C78    H11       1.08898      .   S
    C78    C77       1.38747      .   S
    O200   C138      1.27308      .   S
    N167   C77       1.35177      .   S
    O205   C145      1.25324      .   S
    C152   C144      1.49938      .   S
    C152   C147      1.41375      .   S
    C77    H10       1.08969      .   S
    C148   C147      1.39952      .   S
    C148   H45       1.09015      .   S
    C145   C143      1.49865      .   S
    C145   O204      1.30260      .   S
    C138   C139      1.49782      .   S
    C138   O201      1.27304      .   S
    C144   C143      1.41289      .   S
    C144   C139      1.41144      .   S
    O95    C120      1.27982      .   S
    C143   C142      1.40253      .   S
    C139   C140      1.39851      .   S
    C147   C146      1.50091      .   S
    O195   C120      1.27389      .   S
    C142   H44       1.08941      .   S
    C142   C141      1.39187      .   S
    C140   H42       1.09063      .   S
    C140   C141      1.39288      .   S
    C141   H43       1.09068      .   S
    C120   C121      1.50090      .   S
    H29    C115      1.09064      .   S
    C146   O203      1.27394      .   S
    C146   O202      1.27989      .   S
    C115   C114      1.39279      .   S
    C115   C116      1.39195      .   S
    H28    C114      1.09062      .   S
    H30    C116      1.08939      .   S
    C114   C113      1.39855      .   S
    C116   C117      1.40243      .   S
    O94    C112      1.27309      .   S
    H31    C122      1.09022      .   S
    O196   C119      1.30246      .   S
    C121   C122      1.39955      .   S
    C121   C126      1.41401      .   S
    C113   C118      1.41147      .   S
    C113   C112      1.49736      .   S
    C117   C118      1.41283      .   S
    C117   C119      1.49825      .   S
    H24    C107      1.08922      .   S
    H51    C158      1.08591      .   S
    C118   C126      1.49960      .   S
    C112   O93       1.27330      .   S
    C119   O197      1.25373      .   S
    C122   C123      1.39282      .   S
    C107   N171      1.35224      .   S
    C107   C108      1.38736      .   S
    C126   C125      1.41426      .   S
    N171   C111      1.34965      .   S
    H50    C157      1.08796      .   S
    H25    C108      1.08895      .   S
    C108   C109      1.40015      .   S
    C158   C157      1.38767      .   S
    C158   N176      1.35040      .   S
    C111   H27       1.08948      .   S
    C111   C110      1.38892      .   S
    C123   H32       1.09070      .   S
    C123   C124      1.39037      .   S
    C157   C156      1.40000      .   S
    H21    C103      1.08772      .   S
    C109   C110      1.40275      .   S
    C109   N170      1.41744  1_565   S
    C125   C124      1.40303      .   S
    C125   C127      1.51341      .   S
    C110   H26       1.08858      .   S
    N176   C154      1.35238      .   S
    N170   N169      1.27359      .   S
    C124   H33       1.08845      .   S
    H20    C102      1.08703      .   S
    O187   C71       1.31112      .   S
    O198   C127      1.24073      .   S
    C103   C102      1.38811      .   S
    C103   C104      1.40007      .   S
    C156   N177      1.42020      .   S
    C156   C155      1.39988      .   S
    C127   O199      1.31131      .   S
    H5     C68       1.08851      .   S
    C102   N168      1.35241      .   S
    N177   N178      1.27319      .   S
    N169   C104      1.42013      .   S
    C154   C155      1.38812      .   S
    C154   H48       1.08713      .   S
    C71    O186      1.24098      .   S
    C71    C69       1.51366      .   S
    C104   C105      1.39987      .   S
    C155   H49       1.08786      .   S
    H54    C162      1.08862      .   S
    C68    C69       1.40305      .   S
    C68    C67       1.38929      .   S
    N178   C161      1.41742  1_565   S
    N168   C106      1.35040      .   S
    C162   C161      1.40272      .   S
    C162   C163      1.38896      .   S
    C69    C70       1.41449      .   S
    H4     C67       1.09077      .   S
    C161   C160      1.40015      .   S
    H55    C163      1.08905      .   S
    C105   C106      1.38766      .   S
    C105   H22       1.08803      .   S
    C67    C66       1.39383      .   S
    C163   N179      1.35008      .   S
    C106   H23       1.08502      .   S
    C160   H53       1.08893      .   S
    C160   C159      1.38758      .   S
    O180   C56       1.27325      .   S
    N179   C159      1.35123      .   S
    O185   C63       1.25372      .   S
    C70    C62       1.49962      .   S
    C70    C65       1.41394      .   S
    C159   H52       1.09010      .   S
    C66    C65       1.39955      .   S
    C66    H3        1.09019      .   S
    C63    C61       1.49826      .   S
    C63    O184      1.30239      .   S
    C56    C57       1.49736      .   S
    C56    O181      1.27315      .   S
    C62    C61       1.41282      .   S
    C62    C57       1.41144      .   S
    O190   C90       1.27989      .   S
    C61    C60       1.40251      .   S
    C57    C58       1.39851      .   S
    C65    C64       1.50101      .   S
    O191   C90       1.27387      .   S
    C60    H2        1.08938      .   S
    C60    C59       1.39202      .   S
    C58    H0        1.09063      .   S
    C58    C59       1.39281      .   S
    C59    H1        1.09064      .   S
    C90    C91       1.50089      .   S
    H15    C85       1.09068      .   S
    C64    O183      1.27391      .   S
    C64    O182      1.27975      .   S
    C85    C84       1.39288      .   S
    C85    C86       1.39187      .   S
    H14    C84       1.09055      .   S
    H16    C86       1.08940      .   S
    C84    C83       1.39852      .   S
    C86    C87       1.40256      .   S
    O189   C82       1.27356      .   S
    H17    C96       1.09019      .   S
    O192   C89       1.30280      .   S
    C91    C96       1.39952      .   S
    C91    C100      1.41383      .   S
    C83    C88       1.41153      .   S
    C83    C82       1.49779      .   S
    C87    C88       1.41290      .   S
    C87    C89       1.49863      .   S
    H38    C133      1.08971      .   S
    H9     C76       1.08590      .   S
    C88    C100      1.49932      .   S
    C82    O188      1.27371      .   S
    C89    O193      1.25324      .   S
    C96    C97       1.39282      .   S
    C133   N175      1.35169      .   S
    C133   C134      1.38747      .   S
    C100   C99       1.41432      .   S
    N175   C137      1.35011      .   S
    H8     C75       1.08807      .   S
    H39    C134      1.08900      .   S
    C134   C135      1.39552      .   S
    C76    C75       1.38766      .   S
    C76    N164      1.35039      .   S
    C137   H41       1.08908      .   S
    C137   C136      1.38889      .   S
    C97    H18       1.05950  1_655   S
    C97    C98       1.39041      .   S
    C75    C74       1.39984      .   S
    H35    C129      1.08772      .   S
    C135   C136      1.40785      .   S
    C135   N174      1.41610  1_565   S
    C99    C98       1.40307      .   S
    C99    C101      1.51370      .   S
    C136   H40       1.08852      .   S
    H34    C128      1.08724      .   S
    C129   C128      1.38809      .   S
    O194   C101      1.24094      .   S
    C74    N165      1.42038      .   S
