# CIF file generated by openbabel 2.4.90, see http://openbabel.sf.net
data_I
_chemical_name_common ''
_cell_length_a 14.273
_cell_length_b 15.94
_cell_length_c 19.73
_cell_angle_alpha 110.743
_cell_angle_beta 89.833
_cell_angle_gamma 116.784
_space_group_name_H-M_alt 'P 1'
_space_group_name_Hall 'P 1'
loop_
    _symmetry_equiv_pos_as_xyz
    x,y,z
loop_
    _atom_site_label
    _atom_site_type_symbol
    _atom_site_fract_x
    _atom_site_fract_y
    _atom_site_fract_z
    _atom_site_occupancy
    Zr0     Zr   0.09066   0.45625   0.89493   1.000
    Zr1     Zr   0.55495   0.46029   0.19001   1.000
    Zr2     Zr   0.63539   0.54410   0.60554   1.000
    Zr3     Zr   0.09454   0.53976   0.30968   1.000
    Zr4     Zr   0.90936   0.54377   0.10490   1.000
    Zr5     Zr   0.44508   0.53975   0.80984   1.000
    Zr6     Zr   0.36461   0.45587   0.39426   1.000
    Zr7     Zr   0.90549   0.46028   0.69017   1.000
    N8      N    0.22939   0.50120   0.16048   1.000
    O9      O    0.38823   0.51094   0.17667   1.000
    O10     O    0.27562   0.46538   0.25227   1.000
    O11     O    0.15740   0.46206   0.04452   1.000
    O12     O    0.10995   0.53834   0.13918   1.000
    N13     N    0.30950   0.95673   0.03261   1.000
    O14     O    0.21535   0.74532   0.97267   1.000
    O15     O    0.41189   0.16892   0.09831   1.000
    N16     N    0.64717   0.95653   0.53270   1.000
    O17     O    0.75697   0.16879   0.59847   1.000
    O18     O    0.52975   0.74505   0.47246   1.000
    N19     N    0.69052   0.04329   0.96716   1.000
    O20     O    0.58814   0.83110   0.90149   1.000
    O21     O    0.78467   0.25470   0.02710   1.000
    N22     N    0.72814   0.49851   0.33910   1.000
    O23     O    0.69624   0.53800   0.45556   1.000
    O24     O    0.81054   0.53444   0.24714   1.000
    O25     O    0.57100   0.46129   0.36025   1.000
    O26     O    0.87705   0.48876   0.32287   1.000
    N27     N    0.35282   0.04348   0.46713   1.000
    O28     O    0.47024   0.25495   0.52735   1.000
    O29     O    0.24304   0.83123   0.40137   1.000
    N30     N    0.77011   0.49882   0.83934   1.000
    O31     O    0.84235   0.53796   0.95531   1.000
    O32     O    0.88981   0.46167   0.86064   1.000
    O33     O    0.61154   0.48908   0.82313   1.000
    O34     O    0.72413   0.53462   0.74754   1.000
    N35     N    0.27189   0.50149   0.66071   1.000
    O36     O    0.12297   0.51125   0.67694   1.000
    O37     O    0.18949   0.46556   0.75269   1.000
    O38     O    0.30377   0.46198   0.54425   1.000
    O39     O    0.42901   0.53869   0.63956   1.000
    O40     O    0.34415   0.51667   0.72390   1.000
    O41     O    0.82742   0.48348   0.77610   1.000
    O42     O    0.65589   0.48335   0.27593   1.000
    O43     O    0.17235   0.51654   0.22372   1.000
loop_
    _geom_bond_atom_site_label_1
    _geom_bond_atom_site_label_2
    _geom_bond_distance
    _geom_bond_site_symmetry_2
    _ccdc_geom_bond_type
    N8     O9        2.21751      .   S
    Zr1    O9        2.87575      .   S
    N8     O10       2.26272      .   S
    Zr6    O10       3.15901      .   S
    N8     O11       2.25935      .   S
    Zr0    O11       3.06103  1_556   S
    N8     O12       2.12689      .   S
    Zr4    O12       2.98969  1_655   S
    N13    O14       2.76857  1_554   S
    Zr0    O14       3.79087      .   S
    N13    O15       2.77614  1_565   S
    Zr1    O15       3.81250      .   S
    N16    O17       2.77679  1_565   S
    Zr7    O17       3.81395      .   S
    N16    O18       2.76888      .   S
    Zr6    O18       3.79141      .   S
    N19    O20       2.77605  1_545   S
    Zr5    O20       3.81233      .   S
    N19    O21       2.76856  1_556   S
    Zr4    O21       3.79085      .   S
    N22    O23       2.26075      .   S
    Zr2    O23       3.06229      .   S
    N22    O24       2.26265      .   S
    Zr4    O24       3.15764      .   S
    N22    O25       2.12771      .   S
    Zr6    O25       2.98924      .   S
    N22    O26       2.21418      .   S
    Zr3    O26       2.86975  1_455   S
    N27    O28       2.76874      .   S
    Zr2    O28       3.79117      .   S
    N27    O29       2.77666  1_545   S
    Zr3    O29       3.81373      .   S
    N30    O31       2.26069      .   S
    Zr4    O31       3.06222  1_554   S
    N30    O32       2.13031      .   S
    Zr0    O32       2.99320  1_455   S
    N30    O33       2.21385      .   S
    Zr5    O33       2.87209      .   S
    N30    O34       2.26118      .   S
    Zr2    O34       3.15753      .   S
    N35    O36       2.21424      .   S
    Zr7    O36       2.86996  1_655   S
    N35    O37       2.26294      .   S
    Zr0    O37       3.15775      .   S
    N35    O38       2.26078      .   S
    Zr6    O38       3.06230      .   S
    N35    O39       2.12758      .   S
    Zr2    O39       2.98917      .   S
    Zr5    O40       2.04468      .   S
    N35    O40       1.49848      .   S
    Zr7    O41       2.04180      .   S
    N30    O41       1.49787      .   S
    Zr1    O42       2.04438      .   S
    N22    O42       1.49827      .   S
    Zr3    O43       2.03999      .   S
    N8     O43       1.49563      .   S
