# CIF file generated by openbabel 2.4.90, see http://openbabel.sf.net
data_I
_chemical_name_common ''
_cell_length_a 17.739
_cell_length_b 17.719
_cell_length_c 17.713
_cell_angle_alpha 96.741
_cell_angle_beta 96.796
_cell_angle_gamma 96.639
_space_group_name_H-M_alt 'P 1'
_space_group_name_Hall 'P 1'
loop_
    _symmetry_equiv_pos_as_xyz
    x,y,z
loop_
    _atom_site_label
    _atom_site_type_symbol
    _atom_site_fract_x
    _atom_site_fract_y
    _atom_site_fract_z
    _atom_site_occupancy
    Cu0     Cu   0.90483   0.30495   0.90380   1.000
    Cu1     Cu   0.90454   0.90442   0.30435   1.000
    Cu2     Cu   0.85582   0.17115   0.85430   1.000
    Cu3     Cu   0.85520   0.85496   0.17040   1.000
    Cu4     Cu   0.17183   0.85466   0.85380   1.000
    Cu5     Cu   0.30527   0.90409   0.90378   1.000
loop_
    _geom_bond_atom_site_label_1
    _geom_bond_atom_site_label_2
    _geom_bond_distance
    _geom_bond_site_symmetry_2
    _ccdc_geom_bond_type
    Cu5    Cu4       2.44893      .   S
    Cu0    Cu2       2.44964      .   S
    Cu1    Cu3       2.45082      .   S
