# CIF file generated by openbabel 2.4.90, see http://openbabel.sf.net
data_I
_chemical_name_common ''
_cell_length_a 17.739
_cell_length_b 17.719
_cell_length_c 17.713
_cell_angle_alpha 96.741
_cell_angle_beta 96.796
_cell_angle_gamma 96.639
_space_group_name_H-M_alt 'P 1'
_space_group_name_Hall 'P 1'
loop_
    _symmetry_equiv_pos_as_xyz
    x,y,z
loop_
    _atom_site_label
    _atom_site_type_symbol
    _atom_site_fract_x
    _atom_site_fract_y
    _atom_site_fract_z
    _atom_site_occupancy
    Zr0     Zr   0.30527   0.90409   0.90378   1.000
    Zr1     Zr   0.90483   0.30495   0.90380   1.000
    Zr2     Zr   0.90454   0.90442   0.30435   1.000
    Zr3     Zr   0.85582   0.17115   0.85430   1.000
    Zr4     Zr   0.85520   0.85496   0.17040   1.000
    Zr5     Zr   0.17183   0.85466   0.85380   1.000
    O6      O    0.23855   0.87938   0.87879   1.000
    O7      O    0.88033   0.23805   0.87905   1.000
    O8      O    0.87987   0.87969   0.23737   1.000
    N9      N    0.34848   0.88347   0.34680   1.000
    O10     O    0.26779   0.86942   0.57442   1.000
    O11     O    0.12867   0.86964   0.25350   1.000
    O12     O    0.57590   0.86988   0.26585   1.000
    O13     O    0.25473   0.86974   0.12712   1.000
    N14     N    0.88445   0.34822   0.34746   1.000
    O15     O    0.87027   0.26712   0.57490   1.000
    O16     O    0.87089   0.12852   0.25384   1.000
    O17     O    0.87003   0.57566   0.26645   1.000
    O18     O    0.87109   0.25449   0.12779   1.000
    N19     N    0.34881   0.34765   0.88344   1.000
    O20     O    0.26783   0.57521   0.86910   1.000
    O21     O    0.57639   0.26672   0.86943   1.000
    O22     O    0.25510   0.12806   0.86931   1.000
    O23     O    0.12919   0.25435   0.86947   1.000
    O24     O    0.89427   0.32542   0.12524   1.000
    O25     O    0.12645   0.32514   0.89332   1.000
    O26     O    0.89417   0.12596   0.32482   1.000
    O27     O    0.12610   0.89360   0.32434   1.000
    O28     O    0.32592   0.12548   0.89327   1.000
    O29     O    0.32571   0.89338   0.12487   1.000
loop_
    _geom_bond_atom_site_label_1
    _geom_bond_atom_site_label_2
    _geom_bond_distance
    _geom_bond_site_symmetry_2
    _ccdc_geom_bond_type
    Zr0    O6        1.22446      .   S
    Zr5    O6        1.22446      .   S
    Zr1    O7        1.22482      .   S
    Zr3    O7        1.22482      .   S
    Zr2    O8        1.22541      .   S
    Zr4    O8        1.22541      .   S
    N9     O10       4.45926      .   S
    Zr5    O10       5.44519      .   S
    N9     O11       4.01917      .   S
    Zr4    O11       4.86779  1_655   S
    N9     O12       4.46114      .   S
    Zr4    O12       5.44576      .   S
    N9     O13       4.01488      .   S
    Zr5    O13       4.85720  1_556   S
    N14    O15       4.45785      .   S
    Zr3    O15       5.44300      .   S
    N14    O16       4.01701      .   S
    Zr4    O16       4.86465  1_565   S
    N14    O17       4.45818      .   S
    Zr4    O17       5.44312      .   S
    N14    O18       4.01606      .   S
    Zr3    O18       4.86201  1_556   S
    N19    O20       4.45867      .   S
    Zr5    O20       5.44494      .   S
    N19    O21       4.46171      .   S
    Zr3    O21       5.44604      .   S
    N19    O22       4.01770      .   S
    Zr5    O22       4.86448  1_565   S
    N19    O23       4.01972      .   S
    Zr3    O23       4.86904  1_655   S
    Zr1    O24       3.92530  1_556   S
    N14    O24       3.93600      .   S
    Zr1    O25       3.93455  1_655   S
    N19    O25       3.94522      .   S
    Zr2    O26       3.92717  1_565   S
    N14    O26       3.93736      .   S
    Zr2    O27       3.93325  1_655   S
    N9     O27       3.94463      .   S
    Zr0    O28       3.92590  1_565   S
    N19    O28       3.93695      .   S
    Zr0    O29       3.91899  1_556   S
    N9     O29       3.93062      .   S
