# CIF file generated by openbabel 2.4.90, see http://openbabel.sf.net
data_I
_chemical_name_common ''
_cell_length_a 13.501
_cell_length_b 14.422
_cell_length_c 15.353
_cell_angle_alpha 89.961
_cell_angle_beta 90.056
_cell_angle_gamma 88.507
_space_group_name_H-M_alt 'P 1'
_space_group_name_Hall 'P 1'
loop_
    _symmetry_equiv_pos_as_xyz
    x,y,z
loop_
    _atom_site_label
    _atom_site_type_symbol
    _atom_site_fract_x
    _atom_site_fract_y
    _atom_site_fract_z
    _atom_site_occupancy
    Zn0     Zn   0.32142   0.83233   0.16313   1.000
    Zn1     Zn   0.04195   0.03942   0.55561   1.000
    Zn2     Zn   0.17897   0.16457   0.66318   1.000
    Zn3     Zn   0.53715   0.46041   0.44098   1.000
    Zn4     Zn   0.67906   0.32748   0.34018   1.000
    Zn5     Zn   0.96306   0.53957   0.94106   1.000
    Zn6     Zn   0.82097   0.67248   0.84017   1.000
    Zn7     Zn   0.45793   0.96036   0.05570   1.000
