# CIF file generated by openbabel 2.4.90, see http://openbabel.sf.net
data_I
_chemical_name_common ''
_cell_length_a 13.501
_cell_length_b 14.422
_cell_length_c 15.353
_cell_angle_alpha 89.961
_cell_angle_beta 90.056
_cell_angle_gamma 88.507
_space_group_name_H-M_alt 'P 1'
_space_group_name_Hall 'P 1'
loop_
    _symmetry_equiv_pos_as_xyz
    x,y,z
loop_
    _atom_site_label
    _atom_site_type_symbol
    _atom_site_fract_x
    _atom_site_fract_y
    _atom_site_fract_z
    _atom_site_occupancy
    Zr0     Zr   0.45793   0.96036   0.05570   1.000
    Zr1     Zr   0.32142   0.83233   0.16313   1.000
    Zr2     Zr   0.04195   0.03942   0.55561   1.000
    Zr3     Zr   0.17897   0.16457   0.66318   1.000
    Zr4     Zr   0.53715   0.46041   0.44098   1.000
    Zr5     Zr   0.67906   0.32748   0.34018   1.000
    Zr6     Zr   0.96306   0.53957   0.94106   1.000
    Zr7     Zr   0.82097   0.67248   0.84017   1.000
    N8      N    0.82472   0.34250   0.66169   1.000
    O9      O    0.88756   0.41744   0.77981   1.000
    O10     O    0.90574   0.21314   0.61180   1.000
    O11     O    0.74478   0.33601   0.53526   1.000
    O12     O    0.81745   0.47203   0.74646   1.000
    O13     O    0.96298   0.25357   0.66800   1.000
    O14     O    0.70105   0.40229   0.57830   1.000
    N15     N    0.67564   0.65730   0.16155   1.000
    O16     O    0.53742   0.74545   0.16782   1.000
    O17     O    0.61277   0.58243   0.27967   1.000
    O18     O    0.75547   0.66386   0.03519   1.000
    O19     O    0.79925   0.59755   0.07824   1.000
    O20     O    0.68285   0.52783   0.24644   1.000
    O21     O    0.59447   0.78669   0.11168   1.000
    N22     N    0.32666   0.16283   0.33669   1.000
    O23     O    0.31876   0.03385   0.25262   1.000
    O24     O    0.40449   0.29071   0.38521   1.000
    O25     O    0.20514   0.10294   0.42020   1.000
    O26     O    0.24817   0.16659   0.46562   1.000
    O27     O    0.46418   0.24619   0.33181   1.000
    O28     O    0.38699   0.08603   0.21744   1.000
    N29     N    0.17368   0.83658   0.83625   1.000
    O30     O    0.09600   0.70879   0.88499   1.000
    O31     O    0.25236   0.83238   0.96531   1.000
    O32     O    0.03605   0.75343   0.83173   1.000
    O33     O    0.18171   0.96440   0.75166   1.000
    O34     O    0.29495   0.89684   0.91995   1.000
    O35     O    0.11286   0.91345   0.71717   1.000
loop_
    _geom_bond_atom_site_label_1
    _geom_bond_atom_site_label_2
    _geom_bond_distance
    _geom_bond_site_symmetry_2
    _ccdc_geom_bond_type
    N8     O9        2.28562      .   S
    Zr6    O9        3.21944      .   S
    N8     O10       2.27180      .   S
    Zr2    O10       3.18886  1_455   S
    N8     O11       2.22321      .   S
    Zr5    O11       3.12635      .   S
    N8     O12       2.27759      .   S
    Zr7    O12       3.23141      .   S
    N8     O13       2.23899      .   S
    Zr3    O13       3.15631  1_455   S
    N8     O14       2.25613      .   S
    Zr4    O14       3.15207      .   S
    N15    O16       2.23270      .   S
    Zr1    O16       3.14453      .   S
    N15    O17       2.28548      .   S
    Zr4    O17       3.21955      .   S
    N15    O18       2.22330      .   S
    Zr7    O18       3.12618  1_556   S
    N15    O19       2.25701      .   S
    Zr6    O19       3.15301  1_556   S
    N15    O20       2.27633      .   S
    Zr5    O20       3.22886      .   S
    N15    O21       2.27138      .   S
    Zr0    O21       3.18805      .   S
    N22    O23       2.26960      .   S
    Zr1    O23       3.21490  1_565   S
    N22    O24       2.27189      .   S
    Zr4    O24       3.18739      .   S
    N22    O25       2.27105      .   S
    Zr2    O25       3.18230      .   S
    N22    O26       2.24618      .   S
    Zr3    O26       3.17492      .   S
    N22    O27       2.23935      .   S
    Zr5    O27       3.15980      .   S
    N22    O28       2.28056      .   S
    Zr0    O28       3.20761  1_565   S
    N29    O30       2.27091      .   S
    Zr6    O30       3.18538  1_655   S
    N29    O31       2.24729      .   S
    Zr1    O31       3.17616  1_554   S
    N29    O32       2.23870      .   S
    Zr7    O32       3.16048  1_655   S
    N29    O33       2.25927      .   S
    Zr3    O33       3.18898  1_545   S
    N29    O34       2.27131      .   S
    Zr0    O34       3.18170  1_554   S
    N29    O35       2.27879      .   S
    Zr2    O35       3.20441  1_545   S
