# CIF file generated by openbabel 2.4.90, see http://openbabel.sf.net
data_I
_chemical_name_common ''
_cell_length_a 6.82
_cell_length_b 9.31423
_cell_length_c 10.1835
_cell_angle_alpha 67.1928
_cell_angle_beta 81.436
_cell_angle_gamma 73.461
_space_group_name_H-M_alt 'P 1'
_space_group_name_Hall 'P 1'
loop_
    _symmetry_equiv_pos_as_xyz
    x,y,z
loop_
    _atom_site_label
    _atom_site_type_symbol
    _atom_site_fract_x
    _atom_site_fract_y
    _atom_site_fract_z
    _atom_site_occupancy
    H0      H    0.24998   0.27303   0.94651   1.000
    H1      H    0.75002   0.72701   0.05349   1.000
    C2      C    0.25378   0.58804   0.30729   1.000
    C3      C    0.23037   0.60573   0.80820   1.000
    C4      C    0.25723   0.09554   0.89018   1.000
    C5      C    0.74620   0.41200   0.69270   1.000
    C6      C    0.76962   0.39430   0.19179   1.000
    C7      C    0.74275   0.90450   0.10982   1.000
    O8      O    0.38689   0.59978   0.37613   1.000
    O9      O    0.12282   0.50627   0.37183   1.000
    O10     O    0.22511   0.45673   0.85896   1.000
    O11     O    0.23105   0.68480   0.67527   1.000
    O12     O    0.25606   0.15360   0.99049   1.000
    O13     O    0.25838   0.17703   0.76011   1.000
    O14     O    0.61309   0.40026   0.62386   1.000
    O15     O    0.87716   0.49376   0.62816   1.000
    O16     O    0.77487   0.54330   0.14104   1.000
    O17     O    0.76894   0.31522   0.32472   1.000
    O18     O    0.74395   0.84644   0.00951   1.000
    O19     O    0.74160   0.82302   0.23989   1.000
loop_
    _geom_bond_atom_site_label_1
    _geom_bond_atom_site_label_2
    _geom_bond_distance
    _geom_bond_site_symmetry_2
    _ccdc_geom_bond_type
    O18    H1        1.01622      .   S
    O18    C7        1.32638      .   S
    C7     O19       1.24561      .   S
    O16    C6        1.28892      .   S
    C6     O17       1.26580      .   S
    C2     O9        1.27826      .   S
    C2     O8        1.27791      .   S
    O14    C5        1.27791      .   S
    O15    C5        1.27826      .   S
    O11    C3        1.26580      .   S
    O13    C4        1.24562      .   S
    C3     O10       1.28892      .   S
    C4     O12       1.32637      .   S
    H0     O12       1.01622      .   S
