# CIF file generated by openbabel 2.4.90, see http://openbabel.sf.net
data_I
_chemical_name_common ''
_cell_length_a 6.82
_cell_length_b 9.31423
_cell_length_c 10.1835
_cell_angle_alpha 67.1928
_cell_angle_beta 81.436
_cell_angle_gamma 73.461
_space_group_name_H-M_alt 'P 1'
_space_group_name_Hall 'P 1'
loop_
    _symmetry_equiv_pos_as_xyz
    x,y,z
loop_
    _atom_site_label
    _atom_site_type_symbol
    _atom_site_fract_x
    _atom_site_fract_y
    _atom_site_fract_z
    _atom_site_occupancy
    Zr0     Zr   0.24482   0.45520   0.61812   1.000
    Zr1     Zr   0.75515   0.54483   0.38187   1.000
    N2      N    0.24746   0.76129   0.00212   1.000
    N3      N    0.75252   0.23874   0.99787   1.000
    C4      C    0.74458   0.82524   0.10318   1.000
    O5      O    0.74630   0.97001   0.07132   1.000
    O6      O    0.74648   0.75458   0.20703   1.000
    C7      C    0.77114   0.41761   0.21918   1.000
    O8      O    0.76660   0.42382   0.28624   1.000
    O9      O    0.76523   0.35705   0.14438   1.000
    O10     O    0.76808   0.48084   0.24032   1.000
    C11     C    0.74548   0.43534   0.64824   1.000
    O12     O    0.58722   0.43153   0.63461   1.000
    O13     O    0.71480   0.45394   0.57555   1.000
    O14     O    0.74788   0.36940   0.76648   1.000
    O15     O    0.90323   0.45491   0.63569   1.000
    O16     O    0.78082   0.47732   0.57663   1.000
    C17     C    0.25450   0.56470   0.35175   1.000
    O18     O    0.21916   0.52271   0.42336   1.000
    O19     O    0.09674   0.54512   0.36430   1.000
    O20     O    0.28517   0.54609   0.42444   1.000
    O21     O    0.41276   0.56850   0.36537   1.000
    O22     O    0.25210   0.63063   0.23350   1.000
    C23     C    0.25541   0.17480   0.89682   1.000
    O24     O    0.25369   0.03003   0.92867   1.000
    O25     O    0.25351   0.24546   0.79297   1.000
    C26     C    0.22884   0.58242   0.78081   1.000
    O27     O    0.23475   0.64298   0.85561   1.000
    O28     O    0.23190   0.51919   0.75967   1.000
    O29     O    0.23339   0.57621   0.71375   1.000
loop_
    _geom_bond_atom_site_label_1
    _geom_bond_atom_site_label_2
    _geom_bond_distance
    _geom_bond_site_symmetry_2
    _ccdc_geom_bond_type
    C4     O5        1.26189      .   S
    N3     O5        2.32934  1_546   S
    C4     O6        1.00568      .   S
    Zr1    O6        2.06381      .   S
    C7     O8        0.70279      .   S
    Zr1    O8        1.73302      .   S
    C7     O9        1.12044      .   S
    N3     O9        2.19437  1_556   S
    C7     O10       0.69538      .   S
    Zr1    O10       1.74338      .   S
    C11    O12       1.12059      .   S
    Zr0    O12       2.30756      .   S
    C11    O13       0.74012      .   S
    Zr1    O13       1.83278      .   S
    C11    O14       1.11990      .   S
    N3     O14       2.19348      .   S
    C11    O15       1.12237      .   S
    Zr0    O15       2.31045  1_455   S
    C11    O16       0.72320      .   S
    Zr1    O16       1.85295      .   S
    C17    O18       0.72321      .   S
    Zr0    O18       1.85295      .   S
    C17    O19       1.12238      .   S
    Zr1    O19       2.31048  1_655   S
    C17    O20       0.74012      .   S
    Zr0    O20       1.83280      .   S
    C17    O21       1.12058      .   S
    Zr1    O21       2.30754      .   S
    C17    O22       1.11991      .   S
    N2     O22       2.19348      .   S
    C23    O24       1.26193      .   S
    N2     O24       2.32942  1_564   S
    C23    O25       1.00570      .   S
    Zr0    O25       2.06377      .   S
    C26    O27       1.12044      .   S
    N2     O27       2.19435  1_554   S
    C26    O28       0.69537      .   S
    Zr0    O28       1.74340      .   S
    C26    O29       0.70281      .   S
    Zr0    O29       1.73300      .   S
