# CIF file generated by openbabel 2.4.90, see http://openbabel.sf.net
data_I
_chemical_name_common ''
_cell_length_a 6.82
_cell_length_b 9.31423
_cell_length_c 10.1835
_cell_angle_alpha 67.1928
_cell_angle_beta 81.436
_cell_angle_gamma 73.461
_space_group_name_H-M_alt 'P 1'
_space_group_name_Hall 'P 1'
loop_
    _symmetry_equiv_pos_as_xyz
    x,y,z
loop_
    _atom_site_label
    _atom_site_type_symbol
    _atom_site_fract_x
    _atom_site_fract_y
    _atom_site_fract_z
    _atom_site_occupancy
    Zr0     Zr   0.24482   0.45520   0.61812   1.000
    Zr1     Zr   0.75515   0.54483   0.38187   1.000
    Zr2     Zr   0.24998   0.27303   0.94651   1.000
    Zr3     Zr   0.75002   0.72701   0.05349   1.000
    Zr4     Zr   0.25378   0.58804   0.30729   1.000
    Zr5     Zr   0.23037   0.60573   0.80820   1.000
    Zr6     Zr   0.25723   0.09554   0.89018   1.000
    Zr7     Zr   0.74620   0.41200   0.69270   1.000
    Zr8     Zr   0.76962   0.39430   0.19179   1.000
    Zr9     Zr   0.74275   0.90450   0.10982   1.000
    Zr10    Zr   0.38689   0.59978   0.37613   1.000
    Zr11    Zr   0.12282   0.50627   0.37183   1.000
    Zr12    Zr   0.22511   0.45673   0.85896   1.000
    Zr13    Zr   0.23105   0.68480   0.67527   1.000
    Zr14    Zr   0.25606   0.15360   0.99049   1.000
    Zr15    Zr   0.25838   0.17703   0.76011   1.000
    Zr16    Zr   0.61309   0.40026   0.62386   1.000
    Zr17    Zr   0.87716   0.49376   0.62816   1.000
    Zr18    Zr   0.77487   0.54330   0.14104   1.000
    Zr19    Zr   0.76894   0.31522   0.32472   1.000
    Zr20    Zr   0.74395   0.84644   0.00951   1.000
    Zr21    Zr   0.74160   0.82302   0.23989   1.000
    O22     O    0.74698   0.78673   0.03150   1.000
    O23     O    0.74335   0.87547   0.05966   1.000
    O24     O    0.74217   0.86376   0.17485   1.000
    O25     O    0.77225   0.46880   0.16641   1.000
    O26     O    0.76928   0.35476   0.25825   1.000
    O27     O    0.74838   0.68393   0.31088   1.000
    O28     O    0.18830   0.54715   0.33956   1.000
    O29     O    0.32033   0.59391   0.34171   1.000
    O30     O    0.76205   0.43003   0.35330   1.000
    O31     O    0.23793   0.57000   0.64669   1.000
    O32     O    0.25160   0.31612   0.68911   1.000
    O33     O    0.67964   0.40613   0.65828   1.000
    O34     O    0.81168   0.45288   0.66043   1.000
    O35     O    0.23071   0.64527   0.74174   1.000
    O36     O    0.25781   0.13629   0.82514   1.000
    O37     O    0.22774   0.53123   0.83358   1.000
    O38     O    0.25665   0.12457   0.94033   1.000
    O39     O    0.25302   0.21331   0.96850   1.000
    O40     O    0.31585   0.52749   0.49712   1.000
    O41     O    0.57102   0.57231   0.37900   1.000
    O42     O    0.18382   0.48073   0.49497   1.000
    O43     O    0.93899   0.52555   0.37685   1.000
    O44     O    0.23496   0.45596   0.73854   1.000
    O45     O    0.42895   0.42773   0.62099   1.000
    O46     O    0.68412   0.47254   0.50287   1.000
    O47     O    0.06099   0.47448   0.62314   1.000
    O48     O    0.81615   0.51930   0.50502   1.000
    O49     O    0.76501   0.54407   0.26146   1.000
    N50     N    0.24746   0.76129   0.00212   1.000
    O51     O    0.25196   0.88526   0.96052   1.000
    O52     O    0.24067   0.70355   0.93042   1.000
    O53     O    0.24971   0.69657   0.11526   1.000
    N54     N    0.75252   0.23874   0.99787   1.000
    O55     O    0.75027   0.30346   0.88472   1.000
    O56     O    0.75931   0.29649   0.06957   1.000
    O57     O    0.74802   0.11478   0.03946   1.000
loop_
    _geom_bond_atom_site_label_1
    _geom_bond_atom_site_label_2
    _geom_bond_distance
    _geom_bond_site_symmetry_2
    _ccdc_geom_bond_type
    Zr20   O22       0.50811      .   S
    Zr3    O22       0.50811      .   S
    Zr20   O23       0.66319      .   S
    Zr9    O23       0.66319      .   S
    Zr9    O24       0.62280      .   S
    Zr21   O24       0.62280      .   S
    Zr18   O25       0.64446      .   S
    Zr8    O25       0.64446      .   S
    Zr8    O26       0.63290      .   S
    Zr19   O26       0.63290      .   S
    Zr21   O27       1.20537      .   S
    Zr1    O27       1.20537      .   S
    Zr4    O28       0.63913      .   S
    Zr11   O28       0.63913      .   S
    Zr4    O29       0.63896      .   S
    Zr10   O29       0.63896      .   S
    Zr19   O30       1.19956      .   S
    Zr1    O30       1.19956      .   S
    Zr0    O31       1.19952      .   S
    Zr13   O31       1.19952      .   S
    Zr0    O32       1.20530      .   S
    Zr15   O32       1.20530      .   S
    Zr16   O33       0.63895      .   S
    Zr7    O33       0.63895      .   S
    Zr17   O34       0.63913      .   S
    Zr7    O34       0.63913      .   S
    Zr13   O35       0.63290      .   S
    Zr5    O35       0.63290      .   S
    Zr15   O36       0.62281      .   S
    Zr6    O36       0.62281      .   S
    Zr5    O37       0.64446      .   S
    Zr12   O37       0.64446      .   S
    Zr6    O38       0.66319      .   S
    Zr14   O38       0.66319      .   S
    Zr2    O39       0.50811      .   S
    Zr14   O39       0.50811      .   S
    Zr10   O40       1.25340      .   S
    Zr0    O40       1.25340      .   S
    Zr10   O41       1.21059      .   S
    Zr1    O41       1.21059      .   S
    Zr11   O42       1.29232      .   S
    Zr0    O42       1.29232      .   S
    Zr11   O43       1.21104  1_455   S
    Zr1    O43       1.21104      .   S
    Zr12   O44       1.22078      .   S
    Zr0    O44       1.22078      .   S
    Zr16   O45       1.21059      .   S
    Zr0    O45       1.21059      .   S
    Zr16   O46       1.25338      .   S
    Zr1    O46       1.25338      .   S
    Zr17   O47       1.21101  1_655   S
    Zr0    O47       1.21101      .   S
    Zr17   O48       1.29233      .   S
    Zr1    O48       1.29233      .   S
    Zr18   O49       1.22074      .   S
    Zr1    O49       1.22074      .   S
    N50    O51       1.07268  1_554   S
    Zr6    O51       1.81536  1_545   S
    N50    O52       1.07392  1_554   S
    Zr5    O52       1.82359      .   S
    N50    O53       1.07363      .   S
    Zr4    O53       1.82053      .   S
    N54    O55       1.07363      .   S
    Zr7    O55       1.82052      .   S
    N54    O56       1.07394  1_556   S
    Zr8    O56       1.82361      .   S
    N54    O57       1.07265  1_556   S
    Zr9    O57       1.81527  1_565   S
