# CIF file generated by openbabel 2.4.90, see http://openbabel.sf.net
data_I
_chemical_name_common ''
_cell_length_a 11.6274
_cell_length_b 11.638
_cell_length_c 11.6507
_cell_angle_alpha 95.2968
_cell_angle_beta 116.299
_cell_angle_gamma 95.1862
_space_group_name_H-M_alt 'P 1'
_space_group_name_Hall 'P 1'
loop_
    _symmetry_equiv_pos_as_xyz
    x,y,z
loop_
    _atom_site_label
    _atom_site_type_symbol
    _atom_site_fract_x
    _atom_site_fract_y
    _atom_site_fract_z
    _atom_site_occupancy
    Ag0     Ag   0.93995   0.24799   0.56036   1.000
    Ag1     Ag   0.20607   0.14307   0.11892   1.000
    Ag2     Ag   0.00118   0.50186   0.50047   1.000
    Ag3     Ag   0.99948   0.99815   0.49879   1.000
    Ag4     Ag   0.61847   0.64409   0.70665   1.000
    Ag5     Ag   0.06008   0.75201   0.43966   1.000
    Ag6     Ag   0.79396   0.85693   0.88111   1.000
    Ag7     Ag   0.38156   0.35591   0.29337   1.000
    Ts8     Ts   0.88068   0.25553   0.50869   1.000
    Ts9     Ts   0.99155   0.24051   0.61966   1.000
    Ts10    Ts   0.19985   0.15641   0.05936   1.000
    Ts11    Ts   0.20581   0.12538   0.17442   1.000
    Ts12    Ts   0.97657   0.51754   0.54414   1.000
    Ts13    Ts   0.02572   0.48601   0.45677   1.000
    Ts14    Ts   0.95590   0.98253   0.52351   1.000
    Ts15    Ts   0.04310   0.01394   0.47415   1.000
    Ts16    Ts   0.67464   0.62663   0.70651   1.000
    Ts17    Ts   0.55894   0.65804   0.70035   1.000
    Ts18    Ts   0.11935   0.74447   0.49134   1.000
    Ts19    Ts   0.00848   0.75949   0.38036   1.000
    Ts20    Ts   0.79408   0.87417   0.82518   1.000
    Ts21    Ts   0.80018   0.84359   0.94067   1.000
    Ts22    Ts   0.44109   0.34196   0.29968   1.000
    Ts23    Ts   0.32580   0.37382   0.29364   1.000
loop_
    _geom_bond_atom_site_label_1
    _geom_bond_atom_site_label_2
    _geom_bond_distance
    _geom_bond_site_symmetry_2
    _ccdc_geom_bond_type
    Ag1    Ag7       2.98528      .   S
    Ag5    Ag3       3.09957  1_455   S
    Ag5    Ag2       3.14593      .   S
    Ag3    Ag0       3.14111  1_565   S
    Ag2    Ag0       3.18810  1_455   S
    Ag4    Ag6       2.98530      .   S
    Ag0    Ts8       0.70576      .   S
    Ag0    Ts9       0.70576      .   S
    Ag1    Ts10      0.69873      .   S
    Ag1    Ts11      0.69770      .   S
    Ag2    Ts12      0.70385  1_455   S
    Ag2    Ts13      0.70385      .   S
    Ag3    Ts14      0.70370      .   S
    Ag3    Ts15      0.70370  1_665   S
    Ag4    Ts16      0.70197      .   S
    Ag4    Ts17      0.69881      .   S
    Ag5    Ts18      0.70575      .   S
    Ag5    Ts19      0.70576      .   S
    Ag6    Ts20      0.69985      .   S
    Ag6    Ts21      0.69872      .   S
    Ag7    Ts22      0.69881      .   S
    Ag7    Ts23      0.69998      .   S
