# CIF file generated by openbabel 2.4.90, see http://openbabel.sf.net
data_I
_chemical_name_common ''
_cell_length_a 11.6274
_cell_length_b 11.638
_cell_length_c 11.6507
_cell_angle_alpha 95.2968
_cell_angle_beta 116.299
_cell_angle_gamma 95.1862
_space_group_name_H-M_alt 'P 1'
_space_group_name_Hall 'P 1'
loop_
    _symmetry_equiv_pos_as_xyz
    x,y,z
loop_
    _atom_site_label
    _atom_site_type_symbol
    _atom_site_fract_x
    _atom_site_fract_y
    _atom_site_fract_z
    _atom_site_occupancy
    C0      C    0.38156   0.35591   0.29337   1.000
    C1      C    0.93995   0.24799   0.56036   1.000
    C2      C    0.20607   0.14307   0.11892   1.000
    C3      C    0.00118   0.50186   0.50047   1.000
    C4      C    0.99948   0.99815   0.49879   1.000
    C5      C    0.61847   0.64409   0.70665   1.000
    C6      C    0.06008   0.75201   0.43966   1.000
    C7      C    0.79396   0.85693   0.88111   1.000
    C8      C    0.55232   0.33862   0.12734   1.000
    C9      C    0.80328   0.28620   0.24328   1.000
    C10     C    0.54370   0.26589   0.52400   1.000
    C11     C    0.68835   0.20105   0.58627   1.000
    C12     C    0.69674   0.35520   0.61486   1.000
    C13     C    0.25732   0.20859   0.69778   1.000
    C14     C    0.37269   0.15722   0.94869   1.000
    C15     C    0.91320   0.29679   0.81072   1.000
    C16     C    0.88445   0.14288   0.80390   1.000
    C17     C    0.97543   0.23338   0.95596   1.000
    C18     C    0.89819   0.55555   0.90108   1.000
    C19     C    0.07167   0.50043   0.80743   1.000
    C20     C    0.62446   0.56971   0.43823   1.000
    C21     C    0.75780   0.59314   0.40327   1.000
    C22     C    0.71816   0.71080   0.48207   1.000
    C23     C    0.10295   0.44540   0.09915   1.000
    C24     C    0.93055   0.50279   0.19337   1.000
    C25     C    0.24455   0.41053   0.59773   1.000
    C26     C    0.37749   0.43193   0.56187   1.000
    C27     C    0.28256   0.29154   0.51909   1.000
    C28     C    0.59891   0.94464   0.60262   1.000
    C29     C    0.69213   0.99955   0.42909   1.000
    C30     C    0.06315   0.93137   0.87508   1.000
    C31     C    0.09759   0.90699   0.74168   1.000
    C32     C    0.01912   0.78989   0.78216   1.000
    C33     C    0.40086   0.05445   0.39632   1.000
    C34     C    0.30697   0.99728   0.56870   1.000
    C35     C    0.90136   0.08937   0.25588   1.000
    C36     C    0.93673   0.06693   0.12289   1.000
    C37     C    0.97971   0.20776   0.21697   1.000
    C38     C    0.44770   0.66138   0.87268   1.000
    C39     C    0.19675   0.71380   0.75675   1.000
    C40     C    0.45632   0.73411   0.47603   1.000
    C41     C    0.31168   0.79895   0.41376   1.000
    C42     C    0.30329   0.64480   0.38517   1.000
    C43     C    0.74271   0.79141   0.30225   1.000
    C44     C    0.62733   0.84279   0.05134   1.000
    C45     C    0.08683   0.70321   0.18931   1.000
    C46     C    0.11558   0.85712   0.19613   1.000
    C47     C    0.02460   0.76662   0.04407   1.000
    C48     C    0.65543   0.28566   0.42099   1.000
    C49     C    0.60942   0.31818   0.22372   1.000
    C50     C    0.73366   0.29179   0.28107   1.000
    C51     C    0.64573   0.27643   0.54310   1.000
    C52     C    0.07874   0.21148   0.84476   1.000
    C53     C    0.21920   0.20374   0.76713   1.000
    C54     C    0.27631   0.17794   0.89136   1.000
    C55     C    0.95637   0.22171   0.85414   1.000
    C56     C    0.81151   0.58533   0.60249   1.000
    C57     C    0.89278   0.55811   0.80604   1.000
    C58     C    0.97907   0.53153   0.75998   1.000
    C59     C    0.72327   0.61658   0.47479   1.000
    C60     C    0.19018   0.41703   0.39817   1.000
    C61     C    0.10863   0.44347   0.19437   1.000
    C62     C    0.02288   0.47120   0.24073   1.000
    C63     C    0.27840   0.38592   0.52594   1.000
    C64     C    0.89810   0.91502   0.68862   1.000
    C65     C    0.69407   0.94210   0.60782   1.000
    C66     C    0.73992   0.96858   0.52151   1.000
    C67     C    0.02624   0.88399   0.77658   1.000
    C68     C    0.10120   0.08263   0.30965   1.000
    C69     C    0.30549   0.05634   0.39080   1.000
    C70     C    0.25931   0.02873   0.47654   1.000
    C71     C    0.97300   0.11349   0.22166   1.000
    C72     C    0.34460   0.71434   0.57904   1.000
    C73     C    0.39061   0.68182   0.77631   1.000
    C74     C    0.26637   0.70821   0.71896   1.000
    C75     C    0.35430   0.72357   0.45693   1.000
    C76     C    0.92129   0.78852   0.15527   1.000
    C77     C    0.78083   0.79626   0.23290   1.000
    C78     C    0.72372   0.82207   0.10867   1.000
    C79     C    0.04366   0.77830   0.14589   1.000
    C80     C    0.56015   0.31405   0.31228   1.000
    C81     C    0.76215   0.27063   0.40535   1.000
    C82     C    0.09474   0.22555   0.73826   1.000
    C83     C    0.18740   0.18308   0.94025   1.000
    C84     C    0.78697   0.59169   0.70621   1.000
    C85     C    0.92734   0.54890   0.63148   1.000
    C86     C    0.07479   0.45433   0.36939   1.000
    C87     C    0.21427   0.40966   0.29417   1.000
    C88     C    0.79433   0.90866   0.71332   1.000
    C89     C    0.86872   0.95129   0.57294   1.000
    C90     C    0.13034   0.04550   0.42489   1.000
    C91     C    0.20528   0.09000   0.28543   1.000
    C92     C    0.43988   0.68595   0.68775   1.000
    C93     C    0.23788   0.72937   0.59468   1.000
    C94     C    0.90528   0.77445   0.26176   1.000
    C95     C    0.81263   0.81693   0.05978   1.000
    O96     O    0.03413   0.77246   0.09498   1.000
    O97     O    0.67553   0.83243   0.08000   1.000
    O98     O    0.76817   0.81950   0.08422   1.000
    O99     O    0.86696   0.80272   0.10753   1.000
    O100    O    0.80329   0.83693   0.97045   1.000
    O101    O    0.10579   0.44443   0.14676   1.000
    O102    O    0.75227   0.80916   0.17078   1.000
    O103    O    0.20568   0.11654   0.20218   1.000
    O104    O    0.29381   0.24949   0.20615   1.000
    O105    O    0.19673   0.16307   0.02958   1.000
    O106    O    0.95486   0.09021   0.17227   1.000
    O107    O    0.58087   0.32840   0.17553   1.000
    O108    O    0.98247   0.78341   0.15058   1.000
    O109    O    0.06525   0.74075   0.16760   1.000
    O110    O    0.07962   0.81771   0.17101   1.000
    O111    O    0.91329   0.78149   0.20852   1.000
    O112    O    0.97671   0.48699   0.21705   1.000
    O113    O    0.06575   0.45733   0.21755   1.000
    O114    O    0.16145   0.42656   0.24427   1.000
    O115    O    0.97635   0.16062   0.21932   1.000
    O116    O    0.93718   0.10143   0.23877   1.000
    O117    O    0.03710   0.09806   0.26566   1.000
    O118    O    0.67154   0.30498   0.25239   1.000
    O119    O    0.58478   0.31611   0.26800   1.000
    O120    O    0.84306   0.78536   0.24733   1.000
    O121    O    0.76177   0.79384   0.26758   1.000
    O122    O    0.04883   0.46276   0.30506   1.000
    O123    O    0.76847   0.28900   0.26218   1.000
    O124    O    0.98268   0.76323   0.35071   1.000
    O125    O    0.74791   0.28121   0.34321   1.000
    O126    O    0.15324   0.08631   0.29754   1.000
    O127    O    0.25539   0.07317   0.33811   1.000
    O128    O    0.29791   0.38278   0.29377   1.000
    O129    O    0.47085   0.33498   0.30283   1.000
    O130    O    0.20222   0.41334   0.34617   1.000
    O131    O    0.11577   0.06406   0.36727   1.000
    O132    O    0.60779   0.29986   0.36664   1.000
    O133    O    0.13248   0.43568   0.38378   1.000
    O134    O    0.03798   0.47809   0.43493   1.000
    O135    O    0.32880   0.68418   0.42105   1.000
    O136    O    0.35318   0.05540   0.39356   1.000
    O137    O    0.28240   0.04254   0.43367   1.000
    O138    O    0.23429   0.40147   0.46205   1.000
    O139    O    0.74054   0.60486   0.43903   1.000
    O140    O    0.70879   0.27815   0.41317   1.000
    O141    O    0.85105   0.25931   0.48286   1.000
    O142    O    0.33299   0.76126   0.43534   1.000
    O143    O    0.65058   0.28105   0.48205   1.000
    O144    O    0.19482   0.03712   0.45072   1.000
    O145    O    0.06491   0.02183   0.46184   1.000
    O146    O    0.71603   0.98407   0.47530   1.000
    O147    O    0.67387   0.59314   0.45651   1.000
    O148    O    0.02978   0.87508   0.46923   1.000
    O149    O    0.03063   0.62694   0.47007   1.000
    O150    O    0.14898   0.74069   0.51717   1.000
    O151    O    0.40531   0.72884   0.46648   1.000
    O152    O    0.34945   0.71895   0.51798   1.000
    O153    O    0.72072   0.66369   0.47843   1.000
    O154    O    0.76739   0.60096   0.53864   1.000
    O155    O    0.28314   0.01301   0.52262   1.000
    O156    O    0.96972   0.12307   0.52958   1.000
    O157    O    0.93410   0.97472   0.53586   1.000
    O158    O    0.97056   0.37492   0.53042   1.000
    O159    O    0.96426   0.52538   0.56597   1.000
    O160    O    0.28048   0.33873   0.52251   1.000
    O161    O    0.80432   0.95994   0.54723   1.000
    O162    O    0.71699   0.95534   0.56467   1.000
    O163    O    0.59472   0.27116   0.53355   1.000
    O164    O    0.32794   0.40892   0.54391   1.000
    O165    O    0.26147   0.39823   0.56184   1.000
    O166    O    0.66704   0.23874   0.56469   1.000
    O167    O    0.67123   0.31582   0.57898   1.000
    O168    O    0.01734   0.23677   0.64931   1.000
    O169    O    0.88341   0.93315   0.63078   1.000
    O170    O    0.29124   0.72185   0.58686   1.000
    O171    O    0.39224   0.70014   0.63339   1.000
    O172    O    0.25212   0.71879   0.65682   1.000
    O173    O    0.86942   0.56712   0.61698   1.000
    O174    O    0.79924   0.58851   0.65435   1.000
    O175    O    0.64649   0.94337   0.60522   1.000
    O176    O    0.74420   0.92538   0.66057   1.000
    O177    O    0.95321   0.54021   0.69573   1.000
    O178    O    0.52918   0.66502   0.69720   1.000
    O179    O    0.41525   0.68388   0.73203   1.000
    O180    O    0.84621   0.91184   0.70097   1.000
    O181    O    0.96217   0.89950   0.73260   1.000
    O182    O    0.23826   0.20617   0.73245   1.000
    O183    O    0.70272   0.61789   0.70643   1.000
    O184    O    0.83987   0.57490   0.75612   1.000
    O185    O    0.70622   0.75051   0.79388   1.000
    O186    O    0.79414   0.88279   0.79722   1.000
    O187    O    0.23156   0.71100   0.73785   1.000
    O188    O    0.32849   0.69502   0.74763   1.000
    O189    O    0.15697   0.21465   0.75270   1.000
    O190    O    0.08674   0.21851   0.79151   1.000
    O191    O    0.06191   0.89549   0.75913   1.000
    O192    O    0.93593   0.54482   0.78301   1.000
    O193    O    0.02537   0.51598   0.78370   1.000
    O194    O    0.24776   0.19084   0.82925   1.000
    O195    O    0.41916   0.67160   0.82450   1.000
    O196    O    0.02268   0.83694   0.77937   1.000
    O197    O    0.04469   0.90768   0.82583   1.000
    O198    O    0.92041   0.18229   0.82902   1.000
    O199    O    0.89549   0.55683   0.85356   1.000
    O200    O    0.93478   0.25925   0.83243   1.000
    O201    O    0.01755   0.21659   0.84945   1.000
    O202    O    0.13307   0.19728   0.89250   1.000
    O203    O    0.96590   0.22754   0.90505   1.000
    O204    O    0.23185   0.18051   0.91580   1.000
    O205    O    0.32450   0.16758   0.92002   1.000
loop_
    _geom_bond_atom_site_label_1
    _geom_bond_atom_site_label_2
    _geom_bond_distance
    _geom_bond_site_symmetry_2
    _ccdc_geom_bond_type
    C47    O96       0.54923      .   S
    C79    O96       0.54923      .   S
    C44    O97       0.54210      .   S
    C78    O97       0.54210      .   S
    C95    O98       0.69341      .   S
    C78    O98       0.69341      .   S
    C95    O99       0.67844      .   S
    C76    O99       0.67844      .   S
    C95    O100      1.04808  1_554   S
    C7     O100      1.04808      .   S
    C23    O101      0.54212      .   S
    C61    O101      0.54212      .   S
    C78    O102      0.68753      .   S
    C77    O102      0.68753      .   S
    C2     O103      1.04655      .   S
    C91    O103      1.04655      .   S
    C2     O104      1.49264      .   S
    C0     O104      1.49264      .   S
    C2     O105      1.04809      .   S
    C83    O105      1.04809  1_556   S
    C36    O106      0.54984      .   S
    C71    O106      0.54984      .   S
    C8     O107      0.54208      .   S
    C49    O107      0.54208      .   S
    C79    O108      0.74442  1_455   S
    C76    O108      0.74442      .   S
    C79    O109      0.54939      .   S
    C45    O109      0.54939      .   S
    C79    O110      0.55044      .   S
    C46    O110      0.55044      .   S
    C76    O111      0.67775      .   S
    C94    O111      0.67775      .   S
    C24    O112      0.54220      .   S
    C62    O112      0.54220  1_455   S
    C61    O113      0.68798      .   S
    C62    O113      0.68798      .   S
    C61    O114      0.69316      .   S
    C87    O114      0.69316      .   S
    C37    O115      0.55048      .   S
    C71    O115      0.55048      .   S
    C71    O116      0.54870      .   S
    C35    O116      0.54870      .   S
    C71    O117      0.74377  1_655   S
    C68    O117      0.74377      .   S
    C49    O118      0.68747      .   S
    C50    O118      0.68747      .   S
    C49    O119      0.69340      .   S
    C80    O119      0.69340      .   S
    C77    O120      0.69329      .   S
    C94    O120      0.69329      .   S
    C77    O121      0.54169      .   S
    C43    O121      0.54169      .   S
    C62    O122      0.69350      .   S
    C86    O122      0.69350      .   S
    C9     O123      0.54161      .   S
    C50    O123      0.54161      .   S
    C94    O124      1.05865      .   S
    C6     O124      1.05865  1_455   S
    C50    O125      0.69325      .   S
    C81    O125      0.69325      .   S
    C91    O126      0.67820      .   S
    C68    O126      0.67820      .   S
    C91    O127      0.69315      .   S
    C69    O127      0.69315      .   S
    C0     O128      1.04997      .   S
    C87    O128      1.04997      .   S
    C0     O129      1.04821      .   S
    C80    O129      1.04821      .   S
    C87    O130      0.67821      .   S
    C60    O130      0.67821      .   S
    C68    O131      0.67721      .   S
    C90    O131      0.67721      .   S
    C80    O132      0.67838      .   S
    C48    O132      0.67838      .   S
    C86    O133      0.67720      .   S
    C60    O133      0.67720      .   S
    C86    O134      1.05578      .   S
    C3     O134      1.05578      .   S
    C42    O135      0.55045      .   S
    C75    O135      0.55045      .   S
    C69    O136      0.54211      .   S
    C33    O136      0.54211      .   S
    C69    O137      0.68795      .   S
    C70    O137      0.68795      .   S
    C60    O138      0.74379      .   S
    C63    O138      0.74379      .   S
    C21    O139      0.54869      .   S
    C59    O139      0.54869      .   S
    C81    O140      0.67778      .   S
    C48    O140      0.67778      .   S
    C81    O141      1.05864      .   S
    C1     O141      1.05864      .   S
    C41    O142      0.54941      .   S
    C75    O142      0.54941      .   S
    C48    O143      0.74437      .   S
    C51    O143      0.74437      .   S
    C90    O144      0.69350      .   S
    C70    O144      0.69350      .   S
    C90    O145      1.05555      .   S
    C4     O145      1.05555  1_665   S
    C29    O146      0.54218      .   S
    C66    O146      0.54218      .   S
    C20    O147      0.54982      .   S
    C59    O147      0.54982      .   S
    C6     O148      1.54979      .   S
    C4     O148      1.54979  1_655   S
    C6     O149      1.57296      .   S
    C3     O149      1.57296      .   S
    C6     O150      1.05863      .   S
    C93    O150      1.05863      .   S
    C75    O151      0.54920      .   S
    C40    O151      0.54920      .   S
    C75    O152      0.74437      .   S
    C72    O152      0.74437      .   S
    C59    O153      0.55050      .   S
    C22    O153      0.55050      .   S
    C59    O154      0.74381      .   S
    C56    O154      0.74381      .   S
    C70    O155      0.54220      .   S
    C34    O155      0.54220  1_565   S
    C4     O156      1.57056  1_565   S
    C1     O156      1.57056      .   S
    C4     O157      1.05555      .   S
    C89    O157      1.05555      .   S
    C3     O158      1.59405  1_455   S
    C1     O158      1.59405      .   S
    C3     O159      1.05578  1_455   S
    C85    O159      1.05578      .   S
    C27    O160      0.55049      .   S
    C63    O160      0.55049      .   S
    C66    O161      0.69353      .   S
    C89    O161      0.69353      .   S
    C66    O162      0.68791      .   S
    C65    O162      0.68791      .   S
    C10    O163      0.54921      .   S
    C51    O163      0.54921      .   S
    C63    O164      0.54983      .   S
    C26    O164      0.54983      .   S
    C63    O165      0.54872      .   S
    C25    O165      0.54872      .   S
    C51    O166      0.54941      .   S
    C11    O166      0.54941      .   S
    C51    O167      0.55045      .   S
    C12    O167      0.55045      .   S
    C1     O168      1.05864  1_655   S
    C82    O168      1.05864      .   S
    C89    O169      0.67720      .   S
    C64    O169      0.67720      .   S
    C72    O170      0.67779      .   S
    C93    O170      0.67779      .   S
    C72    O171      0.67838      .   S
    C92    O171      0.67838      .   S
    C93    O172      0.69325      .   S
    C74    O172      0.69325      .   S
    C56    O173      0.67719      .   S
    C85    O173      0.67719      .   S
    C56    O174      0.67822      .   S
    C84    O174      0.67822      .   S
    C28    O175      0.54211      .   S
    C65    O175      0.54211      .   S
    C65    O176      0.69317      .   S
    C88    O176      0.69317      .   S
    C85    O177      0.69352      .   S
    C58    O177      0.69352      .   S
    C92    O178      1.04821      .   S
    C5     O178      1.04821      .   S
    C92    O179      0.69340      .   S
    C73    O179      0.69340      .   S
    C64    O180      0.67821      .   S
    C88    O180      0.67821      .   S
    C64    O181      0.74378      .   S
    C67    O181      0.74378  1_455   S
    C13    O182      0.54169      .   S
    C53    O182      0.54169      .   S
    C84    O183      1.05296      .   S
    C5     O183      1.05296      .   S
    C84    O184      0.69319      .   S
    C57    O184      0.69319      .   S
    C5     O185      1.49265      .   S
    C7     O185      1.49265      .   S
    C88    O186      1.04977      .   S
    C7     O186      1.04977      .   S
    C74    O187      0.54161      .   S
    C39    O187      0.54161      .   S
    C74    O188      0.68747      .   S
    C73    O188      0.68747      .   S
    C82    O189      0.69329      .   S
    C53    O189      0.69329      .   S
    C82    O190      0.67775      .   S
    C52    O190      0.67775      .   S
    C31    O191      0.54868      .   S
    C67    O191      0.54868      .   S
    C58    O192      0.68795      .   S
    C57    O192      0.68795      .   S
    C58    O193      0.54219  1_655   S
    C19    O193      0.54219      .   S
    C53    O194      0.68753      .   S
    C54    O194      0.68753      .   S
    C73    O195      0.54209      .   S
    C38    O195      0.54209      .   S
    C67    O196      0.55047      .   S
    C32    O196      0.55047      .   S
    C67    O197      0.54982      .   S
    C30    O197      0.54982      .   S
    C16    O198      0.55045      .   S
    C55    O198      0.55045      .   S
    C57    O199      0.54211      .   S
    C18    O199      0.54211      .   S
    C15    O200      0.54939      .   S
    C55    O200      0.54939      .   S
    C52    O201      0.74442      .   S
    C55    O201      0.74442  1_655   S
    C52    O202      0.67844      .   S
    C83    O202      0.67844      .   S
    C55    O203      0.54923      .   S
    C17    O203      0.54923      .   S
    C54    O204      0.69340      .   S
    C83    O204      0.69340      .   S
    C54    O205      0.54210      .   S
    C14    O205      0.54210      .   S
