# CIF file generated by openbabel 2.4.90, see http://openbabel.sf.net
data_I
_chemical_name_common ''
_cell_length_a 22.087
_cell_length_b 17.892
_cell_length_c 20.541
_cell_angle_alpha 110.258
_cell_angle_beta 93.396
_cell_angle_gamma 89.007
_space_group_name_H-M_alt 'P 1'
_space_group_name_Hall 'P 1'
loop_
    _symmetry_equiv_pos_as_xyz
    x,y,z
loop_
    _atom_site_label
    _atom_site_type_symbol
    _atom_site_fract_x
    _atom_site_fract_y
    _atom_site_fract_z
    _atom_site_occupancy
    H0      H    0.10676   0.21641   0.04619   1.000
    H1      H    0.60798   0.21656   0.04589   1.000
    H2      H    0.10053   0.10481   0.93069   1.000
    H3      H    0.60180   0.10480   0.93048   1.000
    H4      H    0.06779   0.27406   0.82749   1.000
    H5      H    0.56825   0.27365   0.82703   1.000
    H6      H    0.07509   0.38556   0.94223   1.000
    H7      H    0.57554   0.38533   0.94100   1.000
    H8      H    0.28965   0.39263   0.23156   1.000
    H9      H    0.79012   0.39343   0.23279   1.000
    H10     H    0.40333   0.39079   0.23297   1.000
    H11     H    0.90381   0.39219   0.23421   1.000
    H12     H    0.39983   0.58406   0.15439   1.000
    H13     H    0.89942   0.58402   0.15383   1.000
    H14     H    0.28615   0.58746   0.15498   1.000
    H15     H    0.78574   0.58692   0.15451   1.000
    H16     H    0.08723   0.60423   0.43541   1.000
    H17     H    0.58663   0.60407   0.43420   1.000
    H18     H    0.07273   0.71643   0.54849   1.000
    H19     H    0.57232   0.71582   0.54758   1.000
    H20     H    0.06428   0.88265   0.43956   1.000
    H21     H    0.56454   0.88304   0.43960   1.000
    H22     H    0.07606   0.77141   0.32750   1.000
    H23     H    0.57645   0.77232   0.32738   1.000
    H24     H    0.09396   0.53297   0.00480   1.000
    H25     H    0.59396   0.53306   0.00420   1.000
    H26     H    0.07547   0.61839   0.93258   1.000
    H27     H    0.57496   0.61864   0.93218   1.000
    H28     H    0.06040   0.81887   0.12396   1.000
    H29     H    0.55972   0.81872   0.12378   1.000
    H30     H    0.07984   0.72478   0.18778   1.000
    H31     H    0.57972   0.72451   0.18739   1.000
    H32     H    0.11136   0.86638   0.94136   1.000
    H33     H    0.61068   0.86636   0.94155   1.000
    H34     H    0.12591   0.93696   0.85760   1.000
    H35     H    0.62591   0.93687   0.85790   1.000
    H36     H    0.00346   0.78876   0.71128   1.000
    H37     H    0.50360   0.78912   0.71100   1.000
    H38     H    0.48285   0.71220   0.78809   1.000
    H39     H    0.98337   0.71177   0.78845   1.000
    H40     H    0.26650   0.90711   0.74060   1.000
    H41     H    0.76647   0.90715   0.73975   1.000
    H42     H    0.38066   0.91279   0.74115   1.000
    H43     H    0.88061   0.91300   0.74069   1.000
    H44     H    0.36549   0.07757   0.63100   1.000
    H45     H    0.86573   0.07709   0.62992   1.000
    H46     H    0.25206   0.07336   0.63238   1.000
    H47     H    0.75227   0.07271   0.63082   1.000
    H48     H    0.06681   0.03766   0.49956   1.000
    H49     H    0.56636   0.03752   0.49920   1.000
    H50     H    0.09472   0.12559   0.43517   1.000
    H51     H    0.59494   0.12522   0.43488   1.000
    H52     H    0.10810   0.32024   0.63282   1.000
    H53     H    0.60890   0.31973   0.63260   1.000
    H54     H    0.07924   0.22373   0.68858   1.000
    H55     H    0.57938   0.22345   0.68828   1.000
    H56     H    0.20556   0.23440   0.31854   1.000
    H57     H    0.70573   0.23406   0.31802   1.000
    H58     H    0.18125   0.30654   0.23598   1.000
    H59     H    0.68125   0.30643   0.23568   1.000
    H60     H    0.03494   0.42070   0.34550   1.000
    H61     H    0.53534   0.42082   0.34589   1.000
    H62     H    0.05289   0.35402   0.43390   1.000
    H63     H    0.55356   0.35403   0.43422   1.000
    H64     H    0.02370   0.82400   0.01297   1.000
    H65     H    0.52265   0.82396   0.01290   1.000
    H66     H    0.99228   0.70956   0.90348   1.000
    H67     H    0.49140   0.70973   0.90322   1.000
    H68     H    0.14526   0.33244   0.52984   1.000
    H69     H    0.64622   0.33177   0.52963   1.000
    H70     H    0.18520   0.22144   0.42725   1.000
    H71     H    0.68563   0.22083   0.42667   1.000
    H72     H    0.39204   0.78348   0.95410   1.000
    H73     H    0.89328   0.78362   0.95380   1.000
    H74     H    0.39821   0.89524   0.06951   1.000
    H75     H    0.89950   0.89521   0.06930   1.000
    H76     H    0.43178   0.72638   0.17296   1.000
    H77     H    0.93224   0.72598   0.17250   1.000
    H78     H    0.42450   0.61471   0.05829   1.000
    H79     H    0.92494   0.61447   0.05777   1.000
    H80     H    0.21006   0.60651   0.76726   1.000
    H81     H    0.71051   0.60746   0.76837   1.000
    H82     H    0.09637   0.60775   0.76580   1.000
    H83     H    0.59681   0.60930   0.76690   1.000
    C84     C    0.57352   0.72720   0.49887   1.000
    C85     C    0.06807   0.80620   0.50090   1.000
    C86     C    0.56796   0.80610   0.50058   1.000
    C87     C    0.06931   0.82168   0.43861   1.000
    H88     H    0.10076   0.41591   0.84620   1.000
    H89     H    0.60032   0.41606   0.84557   1.000
    H90     H    0.21444   0.41302   0.84553   1.000
    H91     H    0.71399   0.41265   0.84498   1.000
    H92     H    0.41339   0.39595   0.56577   1.000
    H93     H    0.91280   0.39580   0.56461   1.000
    H94     H    0.42770   0.28419   0.45239   1.000
    H95     H    0.92728   0.28361   0.45152   1.000
    H96     H    0.43548   0.11698   0.56030   1.000
    H97     H    0.93573   0.11737   0.56043   1.000
    H98     H    0.42357   0.22770   0.67260   1.000
    H99     H    0.92396   0.22861   0.67248   1.000
    H100    H    0.40619   0.46697   0.99579   1.000
    H101    H    0.90609   0.46707   0.99520   1.000
    H102    H    0.42504   0.38137   0.06781   1.000
    H103    H    0.92458   0.38165   0.06743   1.000
    H104    H    0.44026   0.18127   0.87622   1.000
    H105    H    0.93964   0.18116   0.87605   1.000
    H106    H    0.42041   0.27551   0.81260   1.000
    H107    H    0.92021   0.27524   0.81222   1.000
    H108    H    0.38934   0.13366   0.05844   1.000
    H109    H    0.88870   0.13367   0.05864   1.000
    H110    H    0.37411   0.06315   0.14209   1.000
    H111    H    0.87413   0.06309   0.14239   1.000
    H112    H    0.49642   0.21091   0.28890   1.000
    H113    H    0.99657   0.21128   0.28874   1.000
    H114    H    0.01667   0.28829   0.21157   1.000
    H115    H    0.51717   0.28783   0.21190   1.000
    C116    C    0.16705   0.27484   0.32621   1.000
    C117    C    0.66728   0.27461   0.32589   1.000
    C118    C    0.15363   0.31437   0.28009   1.000
    C119    C    0.65375   0.31426   0.27980   1.000
    C120    C    0.07218   0.37890   0.34191   1.000
    H121    H    0.23355   0.09287   0.26024   1.000
    H122    H    0.73352   0.09291   0.25939   1.000
    H123    H    0.11940   0.08703   0.25930   1.000
    H124    H    0.61936   0.08722   0.25884   1.000
    H125    H    0.13429   0.92294   0.37008   1.000
    H126    H    0.63453   0.92245   0.36891   1.000
    H127    H    0.24775   0.92732   0.36917   1.000
    H128    H    0.74797   0.92667   0.36762   1.000
    H129    H    0.43366   0.96250   0.50079   1.000
    H130    H    0.93321   0.96237   0.50044   1.000
    H131    H    0.40508   0.87480   0.56510   1.000
    H132    H    0.90529   0.87444   0.56484   1.000
    H133    H    0.39113   0.68029   0.36739   1.000
    H134    H    0.89192   0.67979   0.36718   1.000
    H135    H    0.42064   0.77658   0.31171   1.000
    H136    H    0.92078   0.77630   0.31143   1.000
    H137    H    0.29430   0.76595   0.68197   1.000
    H138    H    0.79452   0.76554   0.68150   1.000
    H139    H    0.31880   0.69358   0.76431   1.000
    H140    H    0.81894   0.69340   0.76406   1.000
    H141    H    0.46471   0.57922   0.65409   1.000
    H142    H    0.96523   0.57935   0.65440   1.000
    H143    H    0.44647   0.64600   0.56575   1.000
    H144    H    0.94716   0.64600   0.56598   1.000
    H145    H    0.47736   0.17605   0.98709   1.000
    H146    H    0.97636   0.17604   0.98704   1.000
    H147    H    0.50862   0.29030   0.09677   1.000
    H148    H    0.00000   0.29048   0.09653   1.000
    H149    H    0.35381   0.66824   0.47035   1.000
    H150    H    0.85476   0.66758   0.47017   1.000
    H151    H    0.31439   0.77918   0.57331   1.000
    H152    H    0.81483   0.77855   0.57279   1.000
    C153    C    0.09084   0.30776   0.00118   1.000
    C154    C    0.59171   0.30771   0.00072   1.000
    C155    C    0.09830   0.22850   0.99796   1.000
    C156    C    0.59938   0.22852   0.99762   1.000
    C157    C    0.09478   0.16663   0.93410   1.000
    C158    C    0.59588   0.16657   0.93381   1.000
    C159    C    0.08336   0.18274   0.87230   1.000
    C160    C    0.58428   0.18253   0.87198   1.000
    C161    C    0.07720   0.26205   0.87557   1.000
    C162    C    0.57784   0.26178   0.87514   1.000
    C163    C    0.08119   0.32401   0.93933   1.000
    C164    C    0.58182   0.32381   0.93880   1.000
    C165    C    0.28111   0.49014   0.19324   1.000
    C166    C    0.78115   0.49026   0.19365   1.000
    C167    C    0.31426   0.43470   0.21520   1.000
    C168    C    0.81455   0.43537   0.21609   1.000
    C169    C    0.37734   0.43367   0.21596   1.000
    C170    C    0.87764   0.43467   0.21685   1.000
    C171    C    0.40846   0.48744   0.19373   1.000
    C172    C    0.90850   0.48822   0.19412   1.000
    C173    C    0.37527   0.54272   0.17160   1.000
    C174    C    0.87504   0.54291   0.17149   1.000
    C175    C    0.31224   0.54451   0.17177   1.000
    C176    C    0.81203   0.54441   0.17160   1.000
    C177    C    0.08286   0.68110   0.37484   1.000
    C178    C    0.58274   0.68146   0.37411   1.000
    C179    C    0.08170   0.66554   0.43719   1.000
    C180    C    0.58134   0.66550   0.43627   1.000
    C181    C    0.07381   0.72747   0.49960   1.000
    N182    N    0.85500   0.74816   0.56868   1.000
    N183    N    0.39279   0.63372   0.71270   1.000
    N184    N    0.89310   0.63370   0.71282   1.000
    C185    C    0.56941   0.82196   0.43845   1.000
    C186    C    0.07603   0.75965   0.37609   1.000
    C187    C    0.57620   0.76020   0.37570   1.000
    C188    C    0.08646   0.59671   0.02889   1.000
    C189    C    0.58627   0.59675   0.02838   1.000
    C190    C    0.07610   0.64446   0.98886   1.000
    C191    C    0.57562   0.64458   0.98847   1.000
    C192    C    0.06474   0.72584   0.02219   1.000
    C193    C    0.56404   0.72588   0.02191   1.000
    C194    C    0.06810   0.75598   0.09536   1.000
    C195    C    0.56753   0.75588   0.09508   1.000
    C196    C    0.07877   0.70409   0.13123   1.000
    C197    C    0.57850   0.70394   0.13084   1.000
    C198    C    0.04483   0.78382   0.87232   1.000
    C199    C    0.54418   0.78403   0.87223   1.000
    C200    C    0.08657   0.84752   0.89090   1.000
    C201    C    0.58606   0.84759   0.89104   1.000
    C202    C    0.09497   0.88641   0.84444   1.000
    C203    C    0.59484   0.88643   0.84458   1.000
    C204    C    0.02640   0.80378   0.76268   1.000
    C205    C    0.52635   0.80406   0.76253   1.000
    C206    C    0.01518   0.76138   0.80549   1.000
    C207    C    0.51474   0.76174   0.80530   1.000
    C208    C    0.25279   0.98949   0.68608   1.000
    C209    C    0.75285   0.98918   0.68487   1.000
    C210    C    0.28896   0.94383   0.71651   1.000
    C211    C    0.78898   0.94375   0.71559   1.000
    C212    C    0.35193   0.94713   0.71696   1.000
    C213    C    0.85195   0.94715   0.71620   1.000
    C214    C    0.37980   0.99550   0.68616   1.000
    C215    C    0.87993   0.99537   0.68539   1.000
    C216    C    0.34356   0.04044   0.65507   1.000
    C217    C    0.84376   0.04005   0.65397   1.000
    C218    C    0.28066   0.03788   0.65545   1.000
    C219    C    0.78082   0.03740   0.65414   1.000
    C220    C    0.07632   0.10061   0.52707   1.000
    C221    C    0.57615   0.10039   0.52670   1.000
    C222    C    0.09199   0.14971   0.49127   1.000
    C223    C    0.59219   0.14937   0.49098   1.000
    C224    C    0.10490   0.23008   0.52800   1.000
    C225    C    0.60540   0.22965   0.52863   1.000
    C226    C    0.09930   0.25806   0.60120   1.000
    C227    C    0.59982   0.25763   0.60096   1.000
    C228    C    0.08320   0.20493   0.63259   1.000
    C229    C    0.58335   0.20462   0.63229   1.000
    C230    C    0.13133   0.28916   0.38396   1.000
    C231    C    0.63175   0.28892   0.38379   1.000
    C232    C    0.57256   0.37893   0.34210   1.000
    C233    C    0.08220   0.34212   0.39077   1.000
    C234    C    0.58271   0.34207   0.39089   1.000
    C235    C    0.40832   0.69234   0.99920   1.000
    C236    C    0.90919   0.69227   0.99880   1.000
    C237    C    0.40063   0.77152   0.00237   1.000
    C238    C    0.90174   0.77153   0.00203   1.000
    C239    C    0.40413   0.83347   0.06618   1.000
    C240    C    0.90524   0.83340   0.06500   1.000
    C241    C    0.41574   0.81750   0.12801   1.000
    C242    C    0.91667   0.81729   0.12769   1.000
    C243    C    0.42218   0.73826   0.12485   1.000
    C244    C    0.92283   0.73798   0.12442   1.000
    C245    C    0.41821   0.67623   0.06114   1.000
    C246    C    0.91885   0.67603   0.06066   1.000
    C247    C    0.21904   0.50968   0.80640   1.000
    C248    C    0.71905   0.50996   0.80670   1.000
    C249    C    0.18563   0.56458   0.78396   1.000
    C250    C    0.68589   0.56539   0.78473   1.000
    C251    C    0.12255   0.56527   0.78320   1.000
    C252    C    0.62281   0.56642   0.78397   1.000
    C253    C    0.09169   0.51172   0.80592   1.000
    C254    C    0.59169   0.51266   0.80621   1.000
    C255    C    0.12514   0.45703   0.82856   1.000
    C256    C    0.62488   0.45739   0.82835   1.000
    C257    C    0.18816   0.45554   0.82836   1.000
    C258    C    0.68790   0.45560   0.82818   1.000
    C259    C    0.41727   0.31855   0.62586   1.000
    C260    C    0.91717   0.31892   0.62516   1.000
    C261    C    0.41867   0.33451   0.56371   1.000
    C262    C    0.91832   0.33449   0.56282   1.000
    C263    C    0.42650   0.27282   0.50111   1.000
    C264    C    0.92620   0.27256   0.50039   1.000
    C265    C    0.43205   0.19392   0.49940   1.000
    C266    C    0.93194   0.19383   0.49907   1.000
    C267    C    0.43060   0.17806   0.56153   1.000
    C268    C    0.93070   0.17834   0.56138   1.000
    C269    C    0.42382   0.23982   0.62420   1.000
    C270    C    0.92398   0.24036   0.62390   1.000
    C271    C    0.41386   0.40328   0.97162   1.000
    C272    C    0.91360   0.40332   0.97112   1.000
    C273    C    0.42442   0.35543   0.01152   1.000
    C274    C    0.92396   0.35557   0.01114   1.000
    C275    C    0.43599   0.27413   0.97808   1.000
    C276    C    0.93532   0.27419   0.97782   1.000
    C277    C    0.43250   0.24412   0.90491   1.000
    C278    C    0.93195   0.24405   0.90465   1.000
    C279    C    0.42162   0.29608   0.86915   1.000
    C280    C    0.92128   0.29594   0.86870   1.000
    C281    C    0.45585   0.21599   0.12777   1.000
    C282    C    0.95522   0.21623   0.12769   1.000
    C283    C    0.41396   0.15243   0.10896   1.000
    C284    C    0.91348   0.15253   0.10906   1.000
    C285    C    0.40518   0.11359   0.15542   1.000
    C286    C    0.90507   0.11364   0.15556   1.000
    C287    C    0.47368   0.19597   0.23740   1.000
    C288    C    0.97363   0.19627   0.23730   1.000
    C289    C    0.48528   0.23829   0.19470   1.000
    C290    C    0.98486   0.23866   0.19452   1.000
    C291    C    0.24716   0.01085   0.31513   1.000
    C292    C    0.74723   0.01053   0.31390   1.000
    C293    C    0.21103   0.05627   0.28440   1.000
    C294    C    0.71106   0.05619   0.28348   1.000
    C295    C    0.14806   0.05288   0.28374   1.000
    C296    C    0.64808   0.05288   0.28303   1.000
    C297    C    0.12009   0.00465   0.31461   1.000
    C298    C    0.62022   0.00452   0.31383   1.000
    C299    C    0.15626   0.95998   0.34603   1.000
    C300    C    0.65646   0.95959   0.34490   1.000
    C301    C    0.21919   0.96263   0.34580   1.000
    C302    C    0.71936   0.96214   0.34454   1.000
    C303    C    0.42387   0.89963   0.47324   1.000
    C304    C    0.92369   0.89942   0.47294   1.000
    C305    C    0.40784   0.85065   0.50901   1.000
    C306    C    0.90802   0.85032   0.50874   1.000
    C307    C    0.39462   0.77037   0.47135   1.000
    C308    C    0.89512   0.76994   0.47111   1.000
    C309    C    0.40021   0.74239   0.39903   1.000
    C310    C    0.90072   0.74197   0.39879   1.000
    C311    C    0.41668   0.79540   0.36769   1.000
    C312    C    0.91681   0.79510   0.36741   1.000
    C313    C    0.36829   0.71110   0.61619   1.000
    C314    C    0.86874   0.71083   0.61604   1.000
    C315    C    0.33275   0.72541   0.67409   1.000
    C316    C    0.83305   0.72512   0.67382   1.000
    C317    C    0.34630   0.68576   0.72010   1.000
    C318    C    0.84654   0.68560   0.71990   1.000
    C319    C    0.42749   0.62110   0.65788   1.000
    C320    C    0.92797   0.62113   0.65800   1.000
    C321    C    0.41732   0.65796   0.60900   1.000
    C322    C    0.91789   0.65790   0.60919   1.000
    N323    N    0.08686   0.62479   0.09909   1.000
    N324    N    0.58675   0.62469   0.09859   1.000
    N325    N    0.05018   0.77702   0.98605   1.000
    N326    N    0.54920   0.77711   0.98591   1.000
    N327    N    0.03187   0.74339   0.91569   1.000
    N328    N    0.53094   0.74362   0.91553   1.000
    N329    N    0.06532   0.86636   0.78124   1.000
    N330    N    0.56545   0.86646   0.78125   1.000
    N331    N    0.07242   0.12681   0.59674   1.000
    N332    N    0.57218   0.12660   0.59641   1.000
    N333    N    0.12263   0.28282   0.49722   1.000
    N334    N    0.62339   0.28233   0.49700   1.000
    N335    N    0.14503   0.25185   0.43134   1.000
    N336    N    0.64552   0.25137   0.43100   1.000
    N337    N    0.10710   0.36632   0.28710   1.000
    N338    N    0.60727   0.36631   0.28721   1.000
    N339    N    0.41345   0.37535   0.90141   1.000
    N340    N    0.91319   0.37523   0.90091   1.000
    N341    N    0.45082   0.22290   0.01409   1.000
    N342    N    0.94988   0.22301   0.01396   1.000
    N343    N    0.46908   0.25640   0.08446   1.000
    N344    N    0.96819   0.25665   0.08432   1.000
    N345    N    0.43458   0.13356   0.21875   1.000
    N346    N    0.93471   0.13368   0.21876   1.000
    N347    N    0.42784   0.87342   0.40358   1.000
    N348    N    0.92759   0.87322   0.40326   1.000
    N349    N    0.37664   0.71769   0.50297   1.000
    N350    N    0.87738   0.71720   0.50270   1.000
    N351    N    0.35451   0.74864   0.56898   1.000
loop_
    _geom_bond_atom_site_label_1
    _geom_bond_atom_site_label_2
    _geom_bond_distance
    _geom_bond_site_symmetry_2
    _ccdc_geom_bond_type
    C154   C164      1.40257  1_554   S
    C154   C156      1.40371  1_554   S
    C153   C163      1.40198  1_554   S
    C153   C155      1.40378  1_554   S
    C238   C240      1.37986      .   S
    C238   H73       1.09007  1_554   S
    C238   C236      1.40372  1_554   S
    C237   C239      1.39192      .   S
    C237   H72       1.09007  1_554   S
    C237   C235      1.40328  1_554   S
    H25    C189      1.08873      .   S
    H24    C188      1.08872      .   S
    C274   H103      1.08607      .   S
    C274   C272      1.38397  1_554   S
    C274   C276      1.40322  1_554   S
    C273   H102      1.08592      .   S
    C273   C271      1.38397  1_554   S
    C273   C275      1.40323  1_554   S
    H65    N326      1.02638  1_554   S
    H64    N325      1.02657  1_554   S
    N342   N344      1.39696      .   S
    N342   C276      1.38752  1_554   S
    N342   H146      1.02657  1_554   S
    N341   N343      1.39665      .   S
    N341   C275      1.38744  1_554   S
    N341   H145      1.02646  1_554   S
    C193   C195      1.40786      .   S
    C193   N326      1.38734  1_554   S
    C193   C191      1.40321  1_554   S
    C192   C194      1.40790      .   S
    C192   N325      1.38759  1_554   S
    C192   C190      1.40325  1_554   S
    C189   N324      1.35241      .   S
    C189   C191      1.38416  1_554   S
    C188   N323      1.35231      .   S
    C188   C190      1.38418  1_554   S
    H1     C156      1.09007  1_554   S
    H0     C155      1.09008  1_554   S
    H79    C246      1.08870      .   S
    H78    C245      1.08872      .   S
    H108   C283      1.08786      .   S
    H109   C284      1.08778      .   S
    C246   C244      1.39145      .   S
    C246   C236      1.40215  1_554   S
    C245   C243      1.39144      .   S
    C245   C235      1.40300  1_554   S
    C240   H75       1.08444      .   S
    C240   C242      1.42154      .   S
    C239   H74       1.08946      .   S
    C239   C241      1.40371      .   S
    N344   H148      0.90091  1_655   S
    N344   C282      1.37198      .   S
    N343   H147      1.03950      .   S
    N343   C281      1.37218      .   S
    C195   H29       1.08983      .   S
    C195   C197      1.38058      .   S
    C194   H28       1.08980      .   S
    C194   C196      1.38056      .   S
    N324   C197      1.35549      .   S
    N323   C196      1.35536      .   S
    C283   C281      1.41004      .   S
    C283   C285      1.38459      .   S
    C284   C282      1.41001      .   S
    C284   C286      1.38445      .   S
    C244   C242      1.40184      .   S
    C244   H77       1.08889      .   S
    C243   C241      1.40185      .   S
    C243   H76       1.08896      .   S
    C282   C290      1.41253      .   S
    C281   C289      1.41252      .   S
    C197   H31       1.08906      .   S
    C196   H30       1.08911      .   S
    H110   C285      1.09012      .   S
    H111   C286      1.09014      .   S
    H13    C174      1.08820      .   S
    H12    C173      1.08815      .   S
    H15    C176      1.08830      .   S
    H14    C175      1.08920      .   S
    C285   N345      1.35187      .   S
    C286   N346      1.35192      .   S
    C174   C176      1.39168      .   S
    C174   C172      1.40322      .   S
    C176   C166      1.40434      .   S
    C173   C175      1.39207      .   S
    C173   C171      1.40312      .   S
    C175   C165      1.40359      .   S
    C165   C167      1.40315      .   S
    C166   C168      1.40342      .   S
    C171   C169      1.40385      .   S
    C172   C170      1.40370      .   S
    C290   H114      1.08703  1_655   S
    C290   C288      1.37952      .   S
    C289   H115      1.08713      .   S
    C289   C287      1.37899      .   S
    C167   C169      1.39239      .   S
    C167   H8        1.08911      .   S
    C169   H10       1.08936      .   S
    C168   C170      1.39261      .   S
    C168   H9        1.08908      .   S
    C170   H11       1.08953      .   S
    N345   C287      1.35545      .   S
    N346   C288      1.35540      .   S
    H59    C119      1.08816      .   S
    H58    C118      1.08972      .   S
    C288   H113      1.09083      .   S
    C287   H112      1.09030      .   S
    H124   C296      1.08965      .   S
    H123   C295      1.08964      .   S
    H122   C294      1.09004      .   S
    H121   C293      1.08997      .   S
    C119   N338      1.35350      .   S
    C119   C117      1.38316      .   S
    C118   N337      1.35374      .   S
    C118   C116      1.38172      .   S
    C296   C294      1.39253      .   S
    C296   C298      1.40412      .   S
    C294   C292      1.40277      .   S
    C295   C293      1.39225      .   S
    C295   C297      1.40428      .   S
    C293   C291      1.40312      .   S
    N337   C120      1.35432      .   S
    N338   C232      1.35281      .   S
    H136   C312      1.08909      .   S
    H135   C311      1.08906      .   S
    C298   C300      1.40235  1_545   S
    C292   C302      1.40233  1_545   S
    C297   C299      1.40271  1_545   S
    C291   C301      1.40139  1_545   S
    H57    C117      1.08966      .   S
    H56    C116      1.08966      .   S
    C117   C231      1.41027      .   S
    C116   C230      1.41022      .   S
    H23    C187      1.08718      .   S
    H22    C186      1.08894      .   S
    C120   H60       1.09038      .   S
    C120   C233      1.38399      .   S
    C232   H61       1.09036      .   S
    C232   C234      1.38416      .   S
    C302   C300      1.39136      .   S
    C302   H128      1.08894      .   S
    C300   H126      1.08888      .   S
    C301   C299      1.39201      .   S
    C301   H127      1.08971      .   S
    C299   H125      1.08861      .   S
    H134   C310      1.09059      .   S
    H133   C309      1.09059      .   S
    C312   C310      1.38158      .   S
    C312   N348      1.35293      .   S
    C311   C309      1.38164      .   S
    C311   N347      1.35296      .   S
    C178   C187      1.40288      .   S
    C178   C180      1.40368      .   S
    C177   C186      1.40240      .   S
    C177   C179      1.40344      .   S
    C187   C185      1.39132      .   S
    C186   C87       1.39028      .   S
    C231   C234      1.40897      .   S
    C231   N336      1.37599      .   S
    C230   C233      1.40899      .   S
    C230   N335      1.37576      .   S
    C233   H62       1.08708      .   S
    C234   H63       1.08799      .   S
    C310   C308      1.40618      .   S
    C309   C307      1.40612      .   S
    N348   C304      1.35069      .   S
    N347   C303      1.35049      .   S
    H71    N336      1.02492      .   S
    H70    N335      1.02489      .   S
    N336   N334      1.39024      .   S
    N335   N333      1.39054      .   S
    H17    C180      1.08965      .   S
    H51    C223      1.08669      .   S
    H50    C222      1.08661      .   S
    H16    C179      1.08972      .   S
    C180   C84       1.39233      .   S
    C179   C181      1.39201      .   S
    C185   H21       1.08838      .   S
    C185   C86       1.40225      .   S
    C87    H20       1.08798      .   S
    C87    C85       1.40162      .   S
    H95    C264      1.08979      .   S
    H94    C263      1.08996      .   S
    H150   N350      1.02442      .   S
    H149   N349      1.02504      .   S
    C308   N350      1.38995      .   S
    C308   C306      1.40187      .   S
    C307   N349      1.39127      .   S
    C307   C305      1.40183      .   S
    C304   H130      1.08873      .   S
    C304   C306      1.38574      .   S
    C303   H129      1.08871      .   S
    C303   C305      1.38597      .   S
    C223   C221      1.38517      .   S
    C223   C225      1.40180      .   S
    C222   C220      1.38574      .   S
    C222   C224      1.39856      .   S
    N334   C225      1.39140      .   S
    N334   H69       1.02511      .   S
    N333   C224      1.37801      .   S
    N333   H68       1.02505      .   S
    C84    C86       1.40331      .   S
    C84    H19       1.08976      .   S
    C266   C264      1.40322      .   S
    C266   C268      1.40208      .   S
    H49    C221      1.08856      .   S
    C265   C263      1.40328      .   S
    C265   C267      1.40226      .   S
    H48    C220      1.08876      .   S
    C181   C85       1.40329      .   S
    C181   H18       1.09014      .   S
    C264   C262      1.39222      .   S
    C263   C261      1.39233      .   S
    N350   N182      1.39211      .   S
    N349   N351      1.39041      .   S
    C306   H132      1.08661      .   S
    C305   H131      1.08650      .   S
    C221   N332      1.35145      .   S
    C220   N331      1.35049      .   S
    C224   C226      1.42315      .   S
    C225   C227      1.40631      .   S
    H96    C267      1.08788      .   S
    H97    C268      1.08803      .   S
    C268   C270      1.39023      .   S
    C267   C269      1.39022      .   S
    C262   H93       1.08970      .   S
    C262   C260      1.40330      .   S
    C261   H92       1.08972      .   S
    C261   C259      1.40347      .   S
    H143   C321      1.08662      .   S
    H144   C322      1.08796      .   S
    N182   H152      1.02490      .   S
    N182   C314      1.37569      .   S
    N351   H151      1.02490      .   S
    N351   C313      1.37596      .   S
    N332   C229      1.35294      .   S
    N331   C228      1.35292      .   S
    C227   C229      1.38146      .   S
    C227   H53       1.09060      .   S
    C226   C228      1.38174      .   S
    C226   H52       1.09065      .   S
    C321   C313      1.40883      .   S
    C321   C319      1.38574      .   S
    C322   C314      1.40897      .   S
    C322   C320      1.38303      .   S
    C314   C316      1.41036      .   S
    C313   C315      1.41021      .   S
    C270   C260      1.40238      .   S
    C270   H99       1.08878      .   S
    C269   C259      1.40242      .   S
    C269   H98       1.08875      .   S
    H45    C217      1.08860      .   S
    H47    C219      1.08911      .   S
    H44    C216      1.08974      .   S
    C229   H55       1.08925      .   S
    H46    C218      1.08889      .   S
    C228   H54       1.08928      .   S
    C217   C219      1.39195      .   S
    C217   C215      1.40275  1_545   S
    H141   C319      1.09038      .   S
    C219   C209      1.40224  1_545   S
    H142   C320      1.09044      .   S
    C216   C218      1.39139      .   S
    C216   C214      1.40265  1_545   S
    C218   C208      1.40219  1_545   S
    C319   N183      1.35153      .   S
    C320   N184      1.35384      .   S
    C316   H138      1.08968      .   S
    C316   C318      1.38108      .   S
    C315   H137      1.08965      .   S
    C315   C317      1.38174      .   S
    C209   C211      1.40305      .   S
    C215   C213      1.40344      .   S
    C208   C210      1.40295      .   S
    C214   C212      1.40412      .   S
    H37    C205      1.09085      .   S
    H36    C204      1.09019      .   S
    N183   C317      1.35350      .   S
    N184   C318      1.35367      .   S
    C211   C213      1.39230      .   S
    C211   H41       1.08997      .   S
    C213   H43       1.09032      .   S
    C210   C212      1.39253      .   S
    C210   H40       1.09005      .   S
    C212   H42       1.08972      .   S
    C318   H140      1.09032      .   S
    C317   H139      1.08967      .   S
    C205   N330      1.35538      .   S
    C205   C207      1.38018      .   S
    C204   N329      1.35538      .   S
    C204   C206      1.37995      .   S
    H82    C251      1.08992      .   S
    H83    C252      1.09010      .   S
    H80    C249      1.08903      .   S
    H81    C250      1.08911      .   S
    N329   C202      1.35199      .   S
    N330   C203      1.35189      .   S
    C251   C249      1.39250      .   S
    C251   C253      1.40361      .   S
    C249   C247      1.40340      .   S
    C252   C250      1.39246      .   S
    C252   C254      1.40386      .   S
    C250   C248      1.40321      .   S
    H38    C207      1.08713      .   S
    H39    C206      1.08702  1_655   S
    C207   C199      1.41254      .   S
    C206   C198      1.41260      .   S
    C253   C255      1.40326      .   S
    C254   C256      1.40311      .   S
    C247   C257      1.40332      .   S
    C248   C258      1.40361      .   S
    H107   C280      1.08774      .   S
    H106   C279      1.08907      .   S
    H5     C162      1.08891      .   S
    H4     C161      1.08892      .   S
    C258   C256      1.39201      .   S
    C258   H91       1.08915      .   S
    C256   H89       1.08816      .   S
    C257   C255      1.39189      .   S
    C257   H90       1.08920      .   S
    C255   H88       1.08811      .   S
    C202   H34       1.09014      .   S
    C202   C200      1.38370      .   S
    C203   H35       1.09012      .   S
    C203   C201      1.38458      .   S
    C280   N340      1.35556      .   S
    C280   C278      1.38176      .   S
    C279   N339      1.35551      .   S
    C279   C277      1.38054      .   S
    C160   C162      1.40185      .   S
    C160   C158      1.40368      .   S
    C199   C201      1.41003      .   S
    C199   N328      1.37211      .   S
    C159   C161      1.40184      .   S
    C159   C157      1.40393      .   S
    C198   C200      1.41004      .   S
    C198   N327      1.37197      .   S
    C162   C164      1.39079      .   S
    C161   C163      1.39145      .   S
    H105   C278      1.08980      .   S
    H104   C277      1.08979      .   S
    C200   H32       1.08852      .   S
    C201   H33       1.08771      .   S
    N340   C272      1.35251      .   S
    N339   C271      1.35249      .   S
    H67    N328      1.03954      .   S
    H66    N327      1.03974  1_655   S
    C278   C276      1.40790      .   S
    C277   C275      1.40786      .   S
    N328   N326      1.39678      .   S
    N327   N325      1.39696      .   S
    H3     C158      1.08945      .   S
    H2     C157      1.08944      .   S
    H27    C191      1.08589      .   S
    H26    C190      1.08588      .   S
    C158   C156      1.39195      .   S
    C157   C155      1.39193      .   S
    C164   H7        1.09262      .   S
    C163   H6        1.08865      .   S
    C272   H101      1.08872      .   S
    C271   H100      1.08872      .   S
