# CIF file generated by openbabel 2.4.90, see http://openbabel.sf.net
data_I
_chemical_name_common ''
_cell_length_a 22.087
_cell_length_b 17.892
_cell_length_c 20.541
_cell_angle_alpha 110.258
_cell_angle_beta 93.396
_cell_angle_gamma 89.007
_space_group_name_H-M_alt 'P 1'
_space_group_name_Hall 'P 1'
loop_
    _symmetry_equiv_pos_as_xyz
    x,y,z
loop_
    _atom_site_label
    _atom_site_type_symbol
    _atom_site_fract_x
    _atom_site_fract_y
    _atom_site_fract_z
    _atom_site_occupancy
    C0      C    0.09134   0.37417   0.07016   1.000
    C1      C    0.59221   0.37424   0.06961   1.000
    C2      C    0.07644   0.11517   0.80377   1.000
    C3      C    0.57737   0.11486   0.80352   1.000
    C4      C    0.21295   0.49134   0.19224   1.000
    C5      C    0.71299   0.49106   0.19260   1.000
    C6      C    0.47649   0.48522   0.19273   1.000
    C7      C    0.97650   0.48650   0.19292   1.000
    C8      C    0.09067   0.61443   0.30733   1.000
    C9      C    0.59047   0.61508   0.30636   1.000
    C10     C    0.06224   0.87363   0.56849   1.000
    C11     C    0.56204   0.87332   0.56830   1.000
    C12     C    0.18479   0.98792   0.68699   1.000
    C13     C    0.68484   0.98745   0.68576   1.000
    C14     C    0.44778   0.99880   0.68635   1.000
    C15     C    0.94795   0.99863   0.68600   1.000
    C16     C    0.40787   0.62581   0.93038   1.000
    C17     C    0.90873   0.62586   0.92984   1.000
    C18     C    0.42264   0.88517   0.19647   1.000
    C19     C    0.92358   0.88487   0.19623   1.000
    C20     C    0.28721   0.50895   0.80745   1.000
    C21     C    0.78721   0.50871   0.80771   1.000
    C22     C    0.02370   0.51347   0.80700   1.000
    C23     C    0.52368   0.51486   0.80723   1.000
    C24     C    0.40960   0.38495   0.69362   1.000
    C25     C    0.90939   0.38559   0.69269   1.000
    C26     C    0.43798   0.12670   0.43168   1.000
    C27     C    0.93777   0.12640   0.43151   1.000
    C28     C    0.31517   0.01257   0.31423   1.000
    C29     C    0.81523   0.01211   0.31300   1.000
    C30     C    0.05206   0.00140   0.31400   1.000
    C31     C    0.55224   0.00121   0.31365   1.000
