# CIF file generated by openbabel 2.4.90, see http://openbabel.sf.net
data_I
_chemical_name_common ''
_cell_length_a 22.087
_cell_length_b 17.892
_cell_length_c 20.541
_cell_angle_alpha 110.258
_cell_angle_beta 93.396
_cell_angle_gamma 89.007
_space_group_name_H-M_alt 'P 1'
_space_group_name_Hall 'P 1'
loop_
    _symmetry_equiv_pos_as_xyz
    x,y,z
loop_
    _atom_site_label
    _atom_site_type_symbol
    _atom_site_fract_x
    _atom_site_fract_y
    _atom_site_fract_z
    _atom_site_occupancy
    Zr0     Zr   0.09769   0.43813   0.22735   1.000
    Zr1     Zr   0.59739   0.43772   0.22694   1.000
    Zr2     Zr   0.09315   0.54986   0.15480   1.000
    Zr3     Zr   0.59328   0.54975   0.15431   1.000
    Zr4     Zr   0.06958   0.93759   0.72224   1.000
    Zr5     Zr   0.57039   0.93744   0.72210   1.000
    Zr6     Zr   0.06343   0.04990   0.64984   1.000
    Zr7     Zr   0.56264   0.04977   0.64952   1.000
    Zr8     Zr   0.40263   0.56231   0.77300   1.000
    Zr9     Zr   0.90278   0.56191   0.77269   1.000
    Zr10    Zr   0.40733   0.45032   0.84572   1.000
    Zr11    Zr   0.90688   0.45014   0.84518   1.000
    Zr12    Zr   0.42963   0.06258   0.27789   1.000
    Zr13    Zr   0.93043   0.06244   0.27775   1.000
    Zr14    Zr   0.43737   0.95025   0.35047   1.000
    Zr15    Zr   0.93659   0.95013   0.35015   1.000
    Zr16    Zr   0.09134   0.37417   0.07016   1.000
    Zr17    Zr   0.59221   0.37424   0.06961   1.000
    Zr18    Zr   0.07644   0.11517   0.80377   1.000
    Zr19    Zr   0.57737   0.11486   0.80352   1.000
    Zr20    Zr   0.21295   0.49134   0.19224   1.000
    Zr21    Zr   0.71299   0.49106   0.19260   1.000
    Zr22    Zr   0.47649   0.48522   0.19273   1.000
    Zr23    Zr   0.97650   0.48650   0.19292   1.000
    Zr24    Zr   0.09067   0.61443   0.30733   1.000
    Zr25    Zr   0.59047   0.61508   0.30636   1.000
    Zr26    Zr   0.06224   0.87363   0.56849   1.000
    Zr27    Zr   0.56204   0.87332   0.56830   1.000
    Zr28    Zr   0.18479   0.98792   0.68699   1.000
    Zr29    Zr   0.68484   0.98745   0.68576   1.000
    Zr30    Zr   0.44778   0.99880   0.68635   1.000
    Zr31    Zr   0.94795   0.99863   0.68600   1.000
    Zr32    Zr   0.40787   0.62581   0.93038   1.000
    Zr33    Zr   0.90873   0.62586   0.92984   1.000
    Zr34    Zr   0.42264   0.88517   0.19647   1.000
    Zr35    Zr   0.92358   0.88487   0.19623   1.000
    Zr36    Zr   0.28721   0.50895   0.80745   1.000
    Zr37    Zr   0.78721   0.50871   0.80771   1.000
    Zr38    Zr   0.02370   0.51347   0.80700   1.000
    Zr39    Zr   0.52368   0.51486   0.80723   1.000
    Zr40    Zr   0.40960   0.38495   0.69362   1.000
    Zr41    Zr   0.90939   0.38559   0.69269   1.000
    Zr42    Zr   0.43798   0.12670   0.43168   1.000
    Zr43    Zr   0.93777   0.12640   0.43151   1.000
    Zr44    Zr   0.31517   0.01257   0.31423   1.000
    Zr45    Zr   0.81523   0.01211   0.31300   1.000
    Zr46    Zr   0.05206   0.00140   0.31400   1.000
    Zr47    Zr   0.55224   0.00121   0.31365   1.000
    Zr48    Zr   0.08028   0.35517   0.12312   1.000
    Zr49    Zr   0.58130   0.35532   0.12266   1.000
    Zr50    Zr   0.10157   0.44392   0.07099   1.000
    Zr51    Zr   0.60227   0.44396   0.07026   1.000
    Zr52    Zr   0.08544   0.04529   0.80510   1.000
    Zr53    Zr   0.58640   0.04502   0.80493   1.000
    Zr54    Zr   0.06134   0.13333   0.75031   1.000
    Zr55    Zr   0.56227   0.13294   0.75002   1.000
    Zr56    Zr   0.18723   0.43681   0.20795   1.000
    Zr57    Zr   0.68757   0.43665   0.20872   1.000
    Zr58    Zr   0.18607   0.54604   0.17582   1.000
    Zr59    Zr   0.68583   0.54531   0.17576   1.000
    Zr60    Zr   0.50095   0.52006   0.15650   1.000
    Zr61    Zr   0.00000   0.52053   0.15570   1.000
    Zr62    Zr   0.50430   0.44735   0.22803   1.000
    Zr63    Zr   0.00000   0.44999   0.22903   1.000
    Zr64    Zr   0.10406   0.54600   0.31000   1.000
    Zr65    Zr   0.60268   0.54615   0.30869   1.000
    Zr66    Zr   0.08281   0.63156   0.25212   1.000
    Zr67    Zr   0.58376   0.63286   0.25140   1.000
    Zr68    Zr   0.05404   0.85583   0.62230   1.000
    Zr69    Zr   0.55489   0.85528   0.62221   1.000
    Zr70    Zr   0.06665   0.94375   0.56665   1.000
    Zr71    Zr   0.56531   0.94357   0.56647   1.000
    Zr72    Zr   0.16140   0.93479   0.70621   1.000
    Zr73    Zr   0.66170   0.93464   0.70562   1.000
    Zr74    Zr   0.15619   0.04017   0.66857   1.000
    Zr75    Zr   0.65596   0.03909   0.66681   1.000
    Zr76    Zr   0.47779   0.96432   0.72253   1.000
    Zr77    Zr   0.97755   0.96460   0.72288   1.000
    Zr78    Zr   0.46984   0.03547   0.64980   1.000
    Zr79    Zr   0.97052   0.03462   0.64924   1.000
    Zr80    Zr   0.41875   0.64474   0.87733   1.000
    Zr81    Zr   0.91982   0.64486   0.87689   1.000
    Zr82    Zr   0.39791   0.55607   0.92973   1.000
    Zr83    Zr   0.89849   0.55610   0.92899   1.000
    Zr84    Zr   0.41361   0.95501   0.19506   1.000
    Zr85    Zr   0.91458   0.95475   0.19489   1.000
    Zr86    Zr   0.43775   0.86709   0.24997   1.000
    Zr87    Zr   0.93868   0.86670   0.24960   1.000
    Zr88    Zr   0.31252   0.56339   0.79126   1.000
    Zr89    Zr   0.81301   0.56314   0.79195   1.000
    Zr90    Zr   0.31446   0.45480   0.82433   1.000
    Zr91    Zr   0.81401   0.45400   0.82420   1.000
    Zr92    Zr   0.99973   0.47947   0.84420   1.000
    Zr93    Zr   0.49931   0.47999   0.84352   1.000
    Zr94    Zr   0.99540   0.55003   0.77096   1.000
    Zr95    Zr   0.49577   0.55267   0.77197   1.000
    Zr96    Zr   0.39737   0.45387   0.69130   1.000
    Zr97    Zr   0.89605   0.45404   0.68997   1.000
    Zr98    Zr   0.41638   0.36717   0.74857   1.000
    Zr99    Zr   0.91724   0.36843   0.74789   1.000
    Zr100   Zr   0.44513   0.14474   0.37778   1.000
    Zr101   Zr   0.94597   0.14421   0.37770   1.000
    Zr102   Zr   0.43471   0.05645   0.43352   1.000
    Zr103   Zr   0.93336   0.05628   0.43334   1.000
    Zr104   Zr   0.33831   0.06539   0.29430   1.000
    Zr105   Zr   0.83862   0.06524   0.29379   1.000
    Zr106   Zr   0.34405   0.96093   0.33318   1.000
    Zr107   Zr   0.84384   0.95986   0.33143   1.000
    Zr108   Zr   0.02246   0.03543   0.27712   1.000
    Zr109   Zr   0.52223   0.03569   0.27740   1.000
    Zr110   Zr   0.02949   0.96540   0.35075   1.000
    Zr111   Zr   0.53018   0.96454   0.35019   1.000
    O112    O    0.59724   0.40910   0.06994   1.000
    O113    O    0.58676   0.36478   0.09614   1.000
    O114    O    0.09646   0.40904   0.07058   1.000
    O115    O    0.08581   0.36467   0.09664   1.000
    O116    O    0.59778   0.49685   0.11229   1.000
    O117    O    0.09736   0.49689   0.11290   1.000
    O118    O    0.58935   0.39652   0.17480   1.000
    O119    O    0.08899   0.39665   0.17524   1.000
    O120    O    0.54712   0.53490   0.15541   1.000
    O121    O    0.63956   0.54753   0.16504   1.000
    O122    O    0.58852   0.59130   0.20286   1.000
    O123    O    0.04658   0.53520   0.15525   1.000
    O124    O    0.13961   0.54795   0.16531   1.000
    O125    O    0.08798   0.59071   0.20346   1.000
    O126    O    0.98825   0.50352   0.17431   1.000
    O127    O    0.48872   0.50264   0.17462   1.000
    O128    O    0.69941   0.51818   0.18418   1.000
    O129    O    0.19951   0.51869   0.18403   1.000
    O130    O    0.20009   0.46407   0.20010   1.000
    O131    O    0.70028   0.46385   0.20066   1.000
    O132    O    0.49040   0.46628   0.21038   1.000
    O133    O    0.98825   0.46825   0.21098   1.000
    O134    O    0.91908   0.91981   0.19556   1.000
    O135    O    0.92251   0.00859   0.23632   1.000
    O136    O    0.41813   0.92009   0.19577   1.000
    O137    O    0.42162   0.00880   0.23648   1.000
    O138    O    0.93113   0.87579   0.22292   1.000
    O139    O    0.43019   0.87613   0.22322   1.000
    O140    O    0.14246   0.43747   0.21765   1.000
    O141    O    0.64248   0.43719   0.21783   1.000
    O142    O    0.55085   0.44254   0.22749   1.000
    O143    O    0.60004   0.49194   0.26782   1.000
    O144    O    0.04884   0.44406   0.22819   1.000
    O145    O    0.10087   0.49207   0.26867   1.000
    O146    O    0.93763   0.90841   0.29988   1.000
    O147    O    0.43756   0.90867   0.30022   1.000
    O148    O    0.58711   0.62397   0.27888   1.000
    O149    O    0.08674   0.62299   0.27973   1.000
    O150    O    0.97645   0.04893   0.27743   1.000
    O151    O    0.03726   0.01842   0.29556   1.000
    O152    O    0.47593   0.04913   0.27764   1.000
    O153    O    0.53723   0.01845   0.29552   1.000
    O154    O    0.88453   0.06384   0.28577   1.000
    O155    O    0.93820   0.10333   0.32773   1.000
    O156    O    0.38397   0.06398   0.28610   1.000
    O157    O    0.43738   0.10366   0.32784   1.000
    O158    O    0.82692   0.03867   0.30340   1.000
    O159    O    0.32675   0.03898   0.30427   1.000
    O160    O    0.59658   0.58062   0.30753   1.000
    O161    O    0.09736   0.58022   0.30867   1.000
    O162    O    0.82953   0.98598   0.32222   1.000
    O163    O    0.54121   0.98288   0.33192   1.000
    O164    O    0.04078   0.98340   0.33238   1.000
    O165    O    0.32961   0.98675   0.32371   1.000
    O166    O    0.89021   0.95499   0.34079   1.000
    O167    O    0.39071   0.95559   0.34183   1.000
    O168    O    0.98304   0.95776   0.35045   1.000
    O169    O    0.93498   0.00320   0.39175   1.000
    O170    O    0.48378   0.95740   0.35033   1.000
    O171    O    0.43604   0.00335   0.39200   1.000
    O172    O    0.94187   0.13530   0.40461   1.000
    O173    O    0.44156   0.13572   0.40473   1.000
    O174    O    0.93557   0.09134   0.43243   1.000
    O175    O    0.43634   0.09157   0.43260   1.000
    O176    O    0.56367   0.90845   0.56739   1.000
    O177    O    0.56398   0.99667   0.60800   1.000
    O178    O    0.06445   0.90869   0.56757   1.000
    O179    O    0.06504   0.99683   0.60825   1.000
    O180    O    0.55846   0.86430   0.59526   1.000
    O181    O    0.05814   0.86473   0.59540   1.000
    O182    O    0.56264   0.89636   0.67216   1.000
    O183    O    0.06181   0.89671   0.67227   1.000
    O184    O    0.01697   0.04226   0.64954   1.000
    O185    O    0.95924   0.01663   0.66762   1.000
    O186    O    0.51624   0.04262   0.64966   1.000
    O187    O    0.60930   0.04443   0.65817   1.000
    O188    O    0.56246   0.09136   0.69977   1.000
    O189    O    0.45881   0.01714   0.66808   1.000
    O190    O    0.10981   0.04504   0.65920   1.000
    O191    O    0.06238   0.09162   0.70008   1.000
    O192    O    0.67040   0.01327   0.67629   1.000
    O193    O    0.17049   0.01405   0.67778   1.000
    O194    O    0.67327   0.96105   0.69569   1.000
    O195    O    0.96275   0.98162   0.70444   1.000
    O196    O    0.46279   0.98156   0.70444   1.000
    O197    O    0.17309   0.96136   0.69660   1.000
    O198    O    0.90272   0.41981   0.69133   1.000
    O199    O    0.89942   0.50798   0.73133   1.000
    O200    O    0.40349   0.41941   0.69246   1.000
    O201    O    0.40000   0.50809   0.73215   1.000
    O202    O    0.91332   0.37701   0.72029   1.000
    O203    O    0.41299   0.37606   0.72110   1.000
    O204    O    0.61605   0.93604   0.71386   1.000
    O205    O    0.11549   0.93619   0.71423   1.000
    O206    O    0.52409   0.95088   0.72232   1.000
    O207    O    0.57840   0.99123   0.76352   1.000
    O208    O    0.02357   0.95110   0.72256   1.000
    O209    O    0.07751   0.99144   0.76367   1.000
    O210    O    0.91206   0.40929   0.79654   1.000
    O211    O    0.41186   0.40875   0.79715   1.000
    O212    O    0.56982   0.12390   0.77677   1.000
    O213    O    0.06889   0.12425   0.77704   1.000
    O214    O    0.94909   0.55597   0.77183   1.000
    O215    O    0.00955   0.53175   0.78898   1.000
    O216    O    0.44920   0.55749   0.77249   1.000
    O217    O    0.50972   0.53376   0.78960   1.000
    O218    O    0.85790   0.56253   0.78232   1.000
    O219    O    0.91130   0.60339   0.82479   1.000
    O220    O    0.35758   0.56285   0.78213   1.000
    O221    O    0.41069   0.60353   0.82517   1.000
    O222    O    0.29987   0.53617   0.79936   1.000
    O223    O    0.80011   0.53593   0.79983   1.000
    O224    O    0.58189   0.07994   0.80423   1.000
    O225    O    0.08094   0.08023   0.80444   1.000
    O226    O    0.01171   0.49647   0.82560   1.000
    O227    O    0.51149   0.49742   0.82538   1.000
    O228    O    0.30084   0.48187   0.81589   1.000
    O229    O    0.80061   0.48135   0.81596   1.000
    O230    O    0.86044   0.45207   0.83469   1.000
    O231    O    0.36090   0.45256   0.83503   1.000
    O232    O    0.45332   0.46515   0.84462   1.000
    O233    O    0.95330   0.46481   0.84469   1.000
    O234    O    0.90268   0.50312   0.88709   1.000
    O235    O    0.40262   0.50319   0.88773   1.000
    O236    O    0.91428   0.63536   0.90337   1.000
    O237    O    0.41331   0.63528   0.90386   1.000
    O238    O    0.90361   0.59098   0.92942   1.000
    O239    O    0.40289   0.59094   0.93006   1.000
    O240    O    0.09542   0.49400   0.19108   1.000
    O241    O    0.59534   0.49373   0.19063   1.000
    O242    O    0.06651   0.99375   0.68604   1.000
    O243    O    0.56652   0.99360   0.68581   1.000
    O244    O    0.40498   0.50632   0.80936   1.000
    O245    O    0.90483   0.50603   0.80894   1.000
    O246    O    0.43350   0.00642   0.31418   1.000
    O247    O    0.93351   0.00628   0.31395   1.000
    N248    N    0.94030   0.24779   0.05464   1.000
    O249    O    0.92517   0.33024   0.96384   1.000
    O250    O    0.93644   0.17293   0.15145   1.000
    N251    N    0.42491   0.25625   0.56269   1.000
    O252    O    0.41917   0.30400   0.61121   1.000
    O253    O    0.42996   0.20828   0.51411   1.000
    N254    N    0.38876   0.74415   0.54752   1.000
    O255    O    0.41068   0.82799   0.46227   1.000
    O256    O    0.39323   0.67108   0.64519   1.000
    N257    N    0.05942   0.75225   0.94536   1.000
    O258    O    0.06344   0.82711   0.84855   1.000
    O259    O    0.07471   0.66979   0.03615   1.000
    N260    N    0.34477   0.48881   0.19354   1.000
    O261    O    0.39362   0.48757   0.19339   1.000
    O262    O    0.29590   0.48977   0.19314   1.000
    N263    N    0.44105   0.24769   0.05483   1.000
    O264    O    0.42572   0.33026   0.96420   1.000
    O265    O    0.43658   0.17288   0.15157   1.000
    N266    N    0.84480   0.48924   0.19391   1.000
    O267    O    0.79594   0.48995   0.19352   1.000
    O268    O    0.89365   0.48830   0.19372   1.000
    N269    N    0.88909   0.74387   0.54734   1.000
    O270    O    0.91059   0.82777   0.46202   1.000
    O271    O    0.89352   0.67084   0.64505   1.000
    N272    N    0.11097   0.25614   0.45261   1.000
    O273    O    0.08945   0.17225   0.53795   1.000
    O274    O    0.10668   0.32918   0.35492   1.000
    N275    N    0.07521   0.74364   0.43782   1.000
    O276    O    0.07018   0.79178   0.48626   1.000
    O277    O    0.08099   0.69570   0.38945   1.000
    N278    N    0.55900   0.75233   0.94516   1.000
    O279    O    0.57451   0.66977   0.03581   1.000
    O280    O    0.56346   0.82714   0.84842   1.000
    N281    N    0.41157   0.75491   0.06366   1.000
    O282    O    0.40984   0.70699   0.01423   1.000
    O283    O    0.41538   0.80312   0.11295   1.000
    N284    N    0.81634   0.99228   0.68513   1.000
    O285    O    0.86514   0.99464   0.68541   1.000
    O286    O    0.76759   0.99030   0.68522   1.000
    N287    N    0.31624   0.99251   0.68614   1.000
    O288    O    0.36501   0.99483   0.68620   1.000
    O289    O    0.26752   0.99061   0.68634   1.000
    N290    N    0.58845   0.24513   0.93625   1.000
    O291    O    0.58464   0.19691   0.88700   1.000
    O292    O    0.59020   0.29305   0.98571   1.000
    N293    N    0.18368   0.00774   0.31485   1.000
    O294    O    0.23242   0.00972   0.31477   1.000
    O295    O    0.13488   0.00539   0.31458   1.000
    N296    N    0.57511   0.74377   0.43727   1.000
    O297    O    0.57006   0.79174   0.48586   1.000
    O298    O    0.58086   0.69602   0.38875   1.000
    N299    N    0.65538   0.51129   0.80640   1.000
    O300    O    0.60653   0.51252   0.80656   1.000
    O301    O    0.70426   0.51031   0.80680   1.000
    N302    N    0.15539   0.51070   0.80612   1.000
    O303    O    0.20426   0.51001   0.80652   1.000
    O304    O    0.10654   0.51165   0.80629   1.000
    N305    N    0.92481   0.25639   0.56218   1.000
    O306    O    0.92983   0.20825   0.51373   1.000
    O307    O    0.91904   0.30432   0.61055   1.000
    N308    N    0.61128   0.25587   0.45245   1.000
    O309    O    0.58934   0.17203   0.53771   1.000
    O310    O    0.60680   0.32894   0.35476   1.000
    N311    N    0.68378   0.00751   0.31384   1.000
    O312    O    0.63501   0.00519   0.31379   1.000
    O313    O    0.73250   0.00941   0.31365   1.000
    N314    N    0.08759   0.24525   0.93670   1.000
    O315    O    0.08374   0.19710   0.88737   1.000
    O316    O    0.08934   0.29311   0.98619   1.000
    N317    N    0.91245   0.75478   0.06320   1.000
    O318    O    0.91071   0.70692   0.01376   1.000
    O319    O    0.91628   0.80293   0.11258   1.000
loop_
    _geom_bond_atom_site_label_1
    _geom_bond_atom_site_label_2
    _geom_bond_distance
    _geom_bond_site_symmetry_2
    _ccdc_geom_bond_type
    Zr17   O112      0.63314      .   S
    Zr51   O112      0.63314      .   S
    Zr17   O113      0.64213      .   S
    Zr49   O113      0.64213      .   S
    Zr16   O114      0.63321      .   S
    Zr50   O114      0.63321      .   S
    Zr16   O115      0.64203      .   S
    Zr48   O115      0.64203      .   S
    Zr51   O116      1.04492      .   S
    Zr3    O116      1.04492      .   S
    Zr50   O117      1.04368      .   S
    Zr2    O117      1.04368      .   S
    Zr49   O118      1.07578      .   S
    Zr1    O118      1.07578      .   S
    Zr48   O119      1.07893      .   S
    Zr0    O119      1.07893      .   S
    Zr3    O120      1.06160      .   S
    Zr60   O120      1.06160      .   S
    Zr3    O121      1.03573      .   S
    Zr59   O121      1.03573      .   S
    Zr3    O122      1.02688      .   S
    Zr67   O122      1.02688      .   S
    Zr2    O123      1.06743      .   S
    Zr61   O123      1.06743      .   S
    Zr2    O124      1.03849      .   S
    Zr58   O124      1.03849      .   S
    Zr2    O125      1.02520      .   S
    Zr66   O125      1.02520      .   S
    Zr61   O126      0.63341  1_455   S
    Zr23   O126      0.63341      .   S
    Zr60   O127      0.63540      .   S
    Zr22   O127      0.63540      .   S
    Zr59   O128      0.63434      .   S
    Zr21   O128      0.63434      .   S
    Zr58   O129      0.63416      .   S
    Zr20   O129      0.63416      .   S
    Zr20   O130      0.63992      .   S
    Zr56   O130      0.63992      .   S
    Zr21   O131      0.63964      .   S
    Zr57   O131      0.63964      .   S
    Zr22   O132      0.63936      .   S
    Zr62   O132      0.63936      .   S
    Zr23   O133      0.61733      .   S
    Zr63   O133      0.61733  1_455   S
    Zr85   O134      0.63599      .   S
    Zr35   O134      0.63599      .   S
    Zr85   O135      1.05049  1_565   S
    Zr13   O135      1.05049      .   S
    Zr84   O136      0.63597      .   S
    Zr34   O136      0.63597      .   S
    Zr84   O137      1.04986  1_565   S
    Zr12   O137      1.04986      .   S
    Zr35   O138      0.63607      .   S
    Zr87   O138      0.63607      .   S
    Zr34   O139      0.63693      .   S
    Zr86   O139      0.63693      .   S
    Zr56   O140      1.01928      .   S
    Zr0    O140      1.01928      .   S
    Zr57   O141      1.02342      .   S
    Zr1    O141      1.02342      .   S
    Zr1    O142      1.03055      .   S
    Zr62   O142      1.03055      .   S
    Zr1    O143      1.03994      .   S
    Zr65   O143      1.03994      .   S
    Zr0    O144      1.08277      .   S
    Zr63   O144      1.08277      .   S
    Zr0    O145      1.04152      .   S
    Zr64   O145      1.04152      .   S
    Zr87   O146      1.04521      .   S
    Zr15   O146      1.04521      .   S
    Zr86   O147      1.04286      .   S
    Zr14   O147      1.04286      .   S
    Zr67   O148      0.63735      .   S
    Zr25   O148      0.63735      .   S
    Zr66   O149      0.63753      .   S
    Zr24   O149      0.63753      .   S
    Zr108  O150      1.04043  1_455   S
    Zr13   O150      1.04043      .   S
    Zr108  O151      0.63616      .   S
    Zr46   O151      0.63616      .   S
    Zr109  O152      1.04638      .   S
    Zr12   O152      1.04638      .   S
    Zr109  O153      0.63635      .   S
    Zr47   O153      0.63635      .   S
    Zr13   O154      1.03533      .   S
    Zr105  O154      1.03533      .   S
    Zr13   O155      1.04008      .   S
    Zr101  O155      1.04008      .   S
    Zr12   O156      1.03064      .   S
    Zr104  O156      1.03064      .   S
    Zr12   O157      1.04086      .   S
    Zr100  O157      1.04086      .   S
    Zr105  O158      0.63782      .   S
    Zr45   O158      0.63782      .   S
    Zr104  O159      0.63862      .   S
    Zr44   O159      0.63862      .   S
    Zr25   O160      0.63713      .   S
    Zr65   O160      0.63713      .   S
    Zr24   O161      0.63665      .   S
    Zr64   O161      0.63665      .   S
    Zr45   O162      0.63495  1_545   S
    Zr107  O162      0.63495      .   S
    Zr47   O163      0.63772  1_545   S
    Zr111  O163      0.63772      .   S
    Zr46   O164      0.63753  1_545   S
    Zr110  O164      0.63753      .   S
    Zr44   O165      0.63466  1_545   S
    Zr106  O165      0.63466      .   S
    Zr107  O166      1.03876      .   S
    Zr15   O166      1.03876      .   S
    Zr106  O167      1.04376      .   S
    Zr14   O167      1.04376      .   S
    Zr15   O168      1.03674      .   S
    Zr110  O168      1.03674  1_455   S
    Zr15   O169      1.03616  1_565   S
    Zr103  O169      1.03616      .   S
    Zr111  O170      1.03532      .   S
    Zr14   O170      1.03532      .   S
    Zr14   O171      1.03527  1_565   S
    Zr102  O171      1.03527      .   S
    Zr101  O172      0.63751      .   S
    Zr43   O172      0.63751      .   S
    Zr100  O173      0.63736      .   S
    Zr42   O173      0.63736      .   S
    Zr43   O174      0.63684      .   S
    Zr103  O174      0.63684      .   S
    Zr42   O175      0.63696      .   S
    Zr102  O175      0.63696      .   S
    Zr71   O176      0.63693      .   S
    Zr27   O176      0.63693      .   S
    Zr71   O177      1.03529      .   S
    Zr7    O177      1.03529  1_545   S
    Zr70   O178      0.63687      .   S
    Zr26   O178      0.63687      .   S
    Zr70   O179      1.03615      .   S
    Zr6    O179      1.03615  1_545   S
    Zr27   O180      0.63746      .   S
    Zr69   O180      0.63746      .   S
    Zr26   O181      0.63750      .   S
    Zr68   O181      0.63750      .   S
    Zr69   O182      1.04088      .   S
    Zr5    O182      1.04088      .   S
    Zr68   O183      1.04002      .   S
    Zr4    O183      1.04002      .   S
    Zr79   O184      1.03677  1_655   S
    Zr6    O184      1.03677      .   S
    Zr79   O185      0.63757      .   S
    Zr31   O185      0.63757  1_565   S
    Zr7    O186      1.03530      .   S
    Zr78   O186      1.03530      .   S
    Zr7    O187      1.04374      .   S
    Zr75   O187      1.04374      .   S
    Zr7    O188      1.04289      .   S
    Zr55   O188      1.04289      .   S
    Zr78   O189      0.63780      .   S
    Zr30   O189      0.63780  1_565   S
    Zr6    O190      1.03880      .   S
    Zr74   O190      1.03880      .   S
    Zr6    O191      1.04462      .   S
    Zr54   O191      1.04462      .   S
    Zr75   O192      0.63467      .   S
    Zr29   O192      0.63467  1_565   S
    Zr74   O193      0.63493      .   S
    Zr28   O193      0.63493  1_565   S
    Zr29   O194      0.63815      .   S
    Zr73   O194      0.63815      .   S
    Zr31   O195      0.63617      .   S
    Zr77   O195      0.63617      .   S
    Zr30   O196      0.63588      .   S
    Zr76   O196      0.63588      .   S
    Zr28   O197      0.63788      .   S
    Zr72   O197      0.63788      .   S
    Zr97   O198      0.63694      .   S
    Zr41   O198      0.63694      .   S
    Zr97   O199      1.04204      .   S
    Zr9    O199      1.04204      .   S
    Zr96   O200      0.63711      .   S
    Zr40   O200      0.63711      .   S
    Zr96   O201      1.03973      .   S
    Zr8    O201      1.03973      .   S
    Zr41   O202      0.63755      .   S
    Zr99   O202      0.63755      .   S
    Zr40   O203      0.63729      .   S
    Zr98   O203      0.63729      .   S
    Zr73   O204      1.03078      .   S
    Zr5    O204      1.03078      .   S
    Zr72   O205      1.03531      .   S
    Zr4    O205      1.03531      .   S
    Zr5    O206      1.04635      .   S
    Zr76   O206      1.04635      .   S
    Zr5    O207      1.04992      .   S
    Zr53   O207      1.04992  1_545   S
    Zr4    O208      1.04044      .   S
    Zr77   O208      1.04044  1_655   S
    Zr4    O209      1.05047      .   S
    Zr52   O209      1.05047  1_545   S
    Zr99   O210      1.02504      .   S
    Zr11   O210      1.02504      .   S
    Zr98   O211      1.02671      .   S
    Zr10   O211      1.02671      .   S
    Zr55   O212      0.63692      .   S
    Zr19   O212      0.63692      .   S
    Zr54   O213      0.63694      .   S
    Zr18   O213      0.63694      .   S
    Zr94   O214      1.02705      .   S
    Zr9    O214      1.02705      .   S
    Zr94   O215      0.63895  1_655   S
    Zr38   O215      0.63895      .   S
    Zr95   O216      1.03105      .   S
    Zr8    O216      1.03105      .   S
    Zr95   O217      0.63916      .   S
    Zr39   O217      0.63916      .   S
    Zr9    O218      1.02144      .   S
    Zr89   O218      1.02144      .   S
    Zr9    O219      1.07815      .   S
    Zr81   O219      1.07815      .   S
    Zr8    O220      1.02274      .   S
    Zr88   O220      1.02274      .   S
    Zr8    O221      1.07630      .   S
    Zr80   O221      1.07630      .   S
    Zr88   O222      0.63980      .   S
    Zr36   O222      0.63980      .   S
    Zr89   O223      0.63983      .   S
    Zr37   O223      0.63983      .   S
    Zr19   O224      0.63596      .   S
    Zr53   O224      0.63596      .   S
    Zr18   O225      0.63597      .   S
    Zr52   O225      0.63597      .   S
    Zr38   O226      0.63542      .   S
    Zr92   O226      0.63542  1_655   S
    Zr39   O227      0.63562      .   S
    Zr93   O227      0.63562      .   S
    Zr36   O228      0.63418      .   S
    Zr90   O228      0.63418      .   S
    Zr37   O229      0.63421      .   S
    Zr91   O229      0.63421      .   S
    Zr91   O230      1.03786      .   S
    Zr11   O230      1.03786      .   S
    Zr90   O231      1.03913      .   S
    Zr10   O231      1.03913      .   S
    Zr93   O232      1.05771      .   S
    Zr10   O232      1.05771      .   S
    Zr92   O233      1.06437      .   S
    Zr11   O233      1.06437      .   S
    Zr11   O234      1.04376      .   S
    Zr83   O234      1.04376      .   S
    Zr10   O235      1.04507      .   S
    Zr82   O235      1.04507      .   S
    Zr81   O236      0.64208      .   S
    Zr33   O236      0.64208      .   S
    Zr80   O237      0.64216      .   S
    Zr32   O237      0.64216      .   S
    Zr83   O238      0.63315      .   S
    Zr33   O238      0.63315      .   S
    Zr82   O239      0.63311      .   S
    Zr32   O239      0.63311      .   S
    Zr0    O240      1.43750      .   S
    Zr2    O240      1.43750      .   S
    Zr1    O241      1.44049      .   S
    Zr3    O241      1.44049      .   S
    Zr4    O242      1.44083      .   S
    Zr6    O242      1.44083  1_545   S
    Zr5    O243      1.44257      .   S
    Zr7    O243      1.44257  1_545   S
    Zr8    O244      1.44084      .   S
    Zr10   O244      1.44084      .   S
    Zr9    O245      1.43740      .   S
    Zr11   O245      1.43740      .   S
    Zr12   O246      1.44256      .   S
    Zr14   O246      1.44256  1_565   S
    Zr13   O247      1.44089      .   S
    Zr15   O247      1.44089  1_565   S
    N248   O249      2.75329  1_554   S
    Zr11   O249      3.76577      .   S
    N248   O250      2.76122      .   S
    Zr13   O250      3.77590      .   S
    N251   O252      1.07750      .   S
    Zr40   O252      1.82802      .   S
    N251   O253      1.07772      .   S
    Zr42   O253      1.82870      .   S
    N254   O255      2.73790      .   S
    Zr14   O255      3.75380      .   S
    N254   O256      2.74432      .   S
    Zr8    O256      3.76601      .   S
    N257   O258      2.76155      .   S
    Zr4    O258      3.77626      .   S
    N257   O259      2.75361  1_556   S
    Zr2    O259      3.76602      .   S
    N260   O261      1.07907      .   S
    Zr22   O261      1.83080      .   S
    N260   O262      1.07877      .   S
    Zr20   O262      1.83084      .   S
    N263   O264      2.75239  1_554   S
    Zr10   O264      3.76494      .   S
    N263   O265      2.76049      .   S
    Zr12   O265      3.77545      .   S
    N266   O267      1.07872      .   S
    Zr21   O267      1.83080      .   S
    N266   O268      1.07900      .   S
    Zr23   O268      1.83063      .   S
    N269   O270      2.73775      .   S
    Zr15   O270      3.75318      .   S
    N269   O271      2.74472      .   S
    Zr9    O271      3.76505      .   S
    N272   O273      2.73814      .   S
    Zr6    O273      3.75346      .   S
    N272   O274      2.74463      .   S
    Zr0    O274      3.76403      .   S
    N275   O276      1.07725      .   S
    Zr26   O276      1.82813      .   S
    N275   O277      1.07706      .   S
    Zr24   O277      1.82731      .   S
    N278   O279      2.75270  1_556   S
    Zr3    O279      3.76547      .   S
    N278   O280      2.76041      .   S
    Zr5    O280      3.77545      .   S
    N281   O282      1.07765      .   S
    Zr32   O282      1.82726  1_556   S
    N281   O283      1.07884      .   S
    Zr34   O283      1.83180      .   S
    N284   O285      1.07903      .   S
    Zr31   O285      1.83091      .   S
    N284   O286      1.07797      .   S
    Zr29   O286      1.83012      .   S
    N287   O288      1.07869      .   S
    Zr30   O288      1.83042      .   S
    N287   O289      1.07761      .   S
    Zr28   O289      1.82952      .   S
    N290   O291      1.07831      .   S
    Zr19   O291      1.83127      .   S
    N290   O292      1.07799      .   S
    Zr17   O292      1.82808  1_554   S
    N293   O294      1.07796      .   S
    Zr44   O294      1.83011      .   S
    N293   O295      1.07903      .   S
    Zr46   O295      1.83091      .   S
    N296   O297      1.07785      .   S
    Zr27   O297      1.82882      .   S
    N296   O298      1.07743      .   S
    Zr25   O298      1.82794      .   S
    N299   O300      1.07898      .   S
    Zr39   O300      1.83057      .   S
    N299   O301      1.07889      .   S
    Zr37   O301      1.83111      .   S
    N302   O303      1.07883      .   S
    Zr36   O303      1.83104      .   S
    N302   O304      1.07887      .   S
    Zr38   O304      1.83032      .   S
    N305   O306      1.07728      .   S
    Zr43   O306      1.82796      .   S
    N305   O307      1.07709      .   S
    Zr41   O307      1.82740      .   S
    N308   O309      2.73808      .   S
    Zr7    O309      3.75398      .   S
    N308   O310      2.74483      .   S
    Zr1    O310      3.76625      .   S
    N311   O312      1.07871      .   S
    Zr47   O312      1.83044      .   S
    N311   O313      1.07761      .   S
    Zr45   O313      1.82951      .   S
    N314   O315      1.07894      .   S
    Zr18   O315      1.83197      .   S
    N314   O316      1.07775      .   S
    Zr16   O316      1.82794  1_554   S
    N317   O318      1.07715      .   S
    Zr33   O318      1.82722  1_556   S
    N317   O319      1.07958      .   S
    Zr35   O319      1.83268      .   S
