# CIF file generated by openbabel 2.4.90, see http://openbabel.sf.net
data_I
_chemical_name_common ''
_cell_length_a 13.218
_cell_length_b 13.2
_cell_length_c 18.517
_cell_angle_alpha 83.284
_cell_angle_beta 83.11
_cell_angle_gamma 67.658
_space_group_name_H-M_alt 'P 1'
_space_group_name_Hall 'P 1'
loop_
    _symmetry_equiv_pos_as_xyz
    x,y,z
loop_
    _atom_site_label
    _atom_site_type_symbol
    _atom_site_fract_x
    _atom_site_fract_y
    _atom_site_fract_z
    _atom_site_occupancy
    H0      H    0.61177   0.38040   0.66730   1.000
    H1      H    0.45027   0.54374   0.62609   1.000
    H2      H    0.41012   0.18699   0.70190   1.000
    H3      H    0.61954   0.38824   0.83257   1.000
    H4      H    0.45544   0.54971   0.87354   1.000
    H5      H    0.81153   0.59128   0.79852   1.000
    H6      H    0.38825   0.61959   0.33271   1.000
    H7      H    0.54975   0.45625   0.37392   1.000
    H8      H    0.58990   0.81299   0.29803   1.000
    H9      H    0.38048   0.61174   0.16742   1.000
    H10     H    0.54458   0.45028   0.12646   1.000
    H11     H    0.18851   0.40869   0.20147   1.000
    C12     C    0.52001   0.27398   0.68704   1.000
    C13     C    0.53229   0.37439   0.66522   1.000
    C14     C    0.44286   0.46471   0.64237   1.000
    C15     C    0.34021   0.45667   0.64010   1.000
    C16     C    0.32782   0.35550   0.66100   1.000
    C17     C    0.41810   0.26558   0.68486   1.000
    C18     C    0.72539   0.48060   0.81325   1.000
    C19     C    0.62510   0.46800   0.83477   1.000
    C20     C    0.53433   0.55746   0.85748   1.000
    C21     C    0.54169   0.66053   0.85991   1.000
    C22     C    0.64271   0.67327   0.83920   1.000
    C23     C    0.73310   0.58294   0.81551   1.000
    C24     C    0.48001   0.72601   0.31298   1.000
    C25     C    0.46773   0.62559   0.33479   1.000
    C26     C    0.55716   0.53527   0.35764   1.000
    C27     C    0.65981   0.54331   0.35991   1.000
    C28     C    0.67220   0.64449   0.33898   1.000
    C29     C    0.58192   0.73440   0.31515   1.000
    C30     C    0.27463   0.51938   0.18674   1.000
    C31     C    0.37493   0.53197   0.16522   1.000
    C32     C    0.46570   0.44253   0.14251   1.000
    C33     C    0.45834   0.33945   0.14008   1.000
    C34     C    0.35733   0.32670   0.16080   1.000
    C35     C    0.26693   0.41703   0.18448   1.000
loop_
    _geom_bond_atom_site_label_1
    _geom_bond_atom_site_label_2
    _geom_bond_distance
    _geom_bond_site_symmetry_2
    _ccdc_geom_bond_type
    H10    C32       1.08889      .   S
    C33    C32       1.40668      .   S
    C33    C34       1.41106      .   S
    C32    C31       1.38873      .   S
    C34    C35       1.39826      .   S
    C31    H9        1.08864      .   S
    C31    C30       1.40327      .   S
    C35    C30       1.39860      .   S
    C35    H11       1.08908      .   S
    H8     C29       1.08905      .   S
    C24    C29       1.39860      .   S
    C24    C25       1.40320      .   S
    C29    C28       1.39797      .   S
    H6     C25       1.08861      .   S
    C25    C26       1.38864      .   S
    C28    C27       1.41088      .   S
    C26    C27       1.40651      .   S
    C26    H7        1.08889      .   S
    H1     C14       1.08890      .   S
    C15    C14       1.40652      .   S
    C15    C16       1.41080      .   S
    C14    C13       1.38863      .   S
    C16    C17       1.39814      .   S
    C13    H0        1.08861      .   S
    C13    C12       1.40322      .   S
    C17    C12       1.39862      .   S
    C17    H2        1.08882      .   S
    H5     C23       1.08908      .   S
    C18    C23       1.39858      .   S
    C18    C19       1.40328      .   S
    C23    C22       1.39829      .   S
    H3     C19       1.08861      .   S
    C19    C20       1.38872      .   S
    C22    C21       1.41105      .   S
    C20    C21       1.40668      .   S
    C20    H4        1.08892      .   S
