# CIF file generated by openbabel 2.4.90, see http://openbabel.sf.net
data_I
_chemical_name_common ''
_cell_length_a 13.218
_cell_length_b 13.2
_cell_length_c 18.517
_cell_angle_alpha 83.284
_cell_angle_beta 83.11
_cell_angle_gamma 67.658
_space_group_name_H-M_alt 'P 1'
_space_group_name_Hall 'P 1'
loop_
    _symmetry_equiv_pos_as_xyz
    x,y,z
loop_
    _atom_site_label
    _atom_site_type_symbol
    _atom_site_fract_x
    _atom_site_fract_y
    _atom_site_fract_z
    _atom_site_occupancy
    Zr0     Zr   0.70664   0.95635   0.78148   1.000
    Zr1     Zr   0.09851   0.71620   0.57764   1.000
    Zr2     Zr   0.04356   0.29343   0.71867   1.000
    Zr3     Zr   0.28059   0.90170   0.92234   1.000
    Zr4     Zr   0.29338   0.04363   0.21850   1.000
    Zr5     Zr   0.90151   0.28378   0.42237   1.000
    Zr6     Zr   0.95647   0.70654   0.28133   1.000
    Zr7     Zr   0.71945   0.09828   0.07767   1.000
    Zr8     Zr   0.86202   0.13788   0.74986   1.000
    Zr9     Zr   0.13800   0.86210   0.25015   1.000
    Zr10    Zr   0.81902   0.19160   0.92575   1.000
    Zr11    Zr   0.69020   0.93956   0.96188   1.000
    Zr12    Zr   0.07207   0.94507   0.64796   1.000
    Zr13    Zr   0.86398   0.76550   0.67263   1.000
    Zr14    Zr   0.80820   0.18264   0.57379   1.000
    Zr15    Zr   0.06041   0.31102   0.53853   1.000
    Zr16    Zr   0.05301   0.92809   0.85119   1.000
    Zr17    Zr   0.23302   0.13574   0.82782   1.000
    Zr18    Zr   0.18101   0.80838   0.07425   1.000
    Zr19    Zr   0.30985   0.06040   0.03813   1.000
    Zr20    Zr   0.92796   0.05491   0.35200   1.000
    Zr21    Zr   0.13603   0.23449   0.32737   1.000
    Zr22    Zr   0.19181   0.81735   0.42622   1.000
    Zr23    Zr   0.93963   0.68893   0.46147   1.000
    Zr24    Zr   0.94705   0.07188   0.14882   1.000
    Zr25    Zr   0.76701   0.86425   0.17218   1.000
    Zr26    Zr   0.61538   0.17636   0.71330   1.000
    Zr27    Zr   0.24715   0.55643   0.61686   1.000
    Zr28    Zr   0.22311   0.33588   0.65810   1.000
    Zr29    Zr   0.79253   0.12544   0.91840   1.000
    Zr30    Zr   0.72601   0.99847   0.93756   1.000
    Zr31    Zr   0.00342   0.91909   0.66390   1.000
    Zr32    Zr   0.89819   0.82750   0.67596   1.000
    Zr33    Zr   0.82351   0.38510   0.78712   1.000
    Zr34    Zr   0.44138   0.75354   0.88301   1.000
    Zr35    Zr   0.66182   0.77843   0.84194   1.000
    Zr36    Zr   0.87432   0.20896   0.58130   1.000
    Zr37    Zr   0.00000   0.27537   0.56264   1.000
    Zr38    Zr   0.07930   0.99662   0.83550   1.000
    Zr39    Zr   0.17107   0.10169   0.82411   1.000
    Zr40    Zr   0.38464   0.82363   0.28665   1.000
    Zr41    Zr   0.75287   0.44356   0.38315   1.000
    Zr42    Zr   0.77691   0.66410   0.34187   1.000
    Zr43    Zr   0.20750   0.87454   0.08156   1.000
    Zr44    Zr   0.27404   0.00000   0.06240   1.000
    Zr45    Zr   0.99660   0.08089   0.33611   1.000
    Zr46    Zr   0.10183   0.17248   0.32404   1.000
    Zr47    Zr   0.17651   0.61488   0.21285   1.000
    Zr48    Zr   0.55866   0.24644   0.11698   1.000
    Zr49    Zr   0.33822   0.22154   0.15806   1.000
    Zr50    Zr   0.12570   0.79102   0.41871   1.000
    Zr51    Zr   0.99873   0.72458   0.43737   1.000
    Zr52    Zr   0.92075   0.00336   0.16451   1.000
    Zr53    Zr   0.82896   0.89830   0.17590   1.000
    Zr54    Zr   0.79558   0.08962   0.85385   1.000
    Zr55    Zr   0.75268   0.00000   0.86625   1.000
    Zr56    Zr   0.75008   0.07036   0.97274   1.000
    Zr57    Zr   0.91614   0.97373   0.70688   1.000
    Zr58    Zr   0.84877   0.91479   0.71427   1.000
    Zr59    Zr   0.99599   0.82672   0.64290   1.000
    Zr60    Zr   0.91021   0.20503   0.64592   1.000
    Zr61    Zr   0.99142   0.24789   0.63381   1.000
    Zr62    Zr   0.92933   0.25200   0.52720   1.000
    Zr63    Zr   0.02558   0.08381   0.79240   1.000
    Zr64    Zr   0.08461   0.15106   0.78543   1.000
    Zr65    Zr   0.17115   0.00000   0.85702   1.000
    Zr66    Zr   0.20445   0.91036   0.14615   1.000
    Zr67    Zr   0.24736   0.99159   0.13376   1.000
    Zr68    Zr   0.24997   0.92961   0.02727   1.000
    Zr69    Zr   0.08388   0.02625   0.29310   1.000
    Zr70    Zr   0.15124   0.08519   0.28573   1.000
    Zr71    Zr   0.00000   0.17326   0.35711   1.000
    Zr72    Zr   0.08983   0.79493   0.35409   1.000
    Zr73    Zr   0.00000   0.75205   0.36619   1.000
    Zr74    Zr   0.07070   0.74797   0.47274   1.000
    Zr75    Zr   0.97445   0.91616   0.20762   1.000
    Zr76    Zr   0.91542   0.84892   0.21450   1.000
    Zr77    Zr   0.82889   0.99596   0.14299   1.000
    Zr78    Zr   0.70953   0.18239   0.70377   1.000
    Zr79    Zr   0.59341   0.09352   0.74323   1.000
    Zr80    Zr   0.14987   0.55560   0.61890   1.000
    Zr81    Zr   0.26262   0.64616   0.59442   1.000
    Zr82    Zr   0.19919   0.31555   0.60016   1.000
    Zr83    Zr   0.16925   0.33387   0.72182   1.000
    Zr84    Zr   0.81747   0.29087   0.79616   1.000
    Zr85    Zr   0.90676   0.40698   0.75799   1.000
    Zr86    Zr   0.44131   0.85127   0.88069   1.000
    Zr87    Zr   0.35202   0.73740   0.90562   1.000
    Zr88    Zr   0.67999   0.80422   0.89999   1.000
    Zr89    Zr   0.66599   0.83070   0.77800   1.000
    Zr90    Zr   0.29049   0.81759   0.29624   1.000
    Zr91    Zr   0.40661   0.90646   0.25678   1.000
    Zr92    Zr   0.85015   0.44438   0.38104   1.000
    Zr93    Zr   0.73740   0.35382   0.40559   1.000
    Zr94    Zr   0.80083   0.68443   0.39985   1.000
    Zr95    Zr   0.83077   0.66611   0.27819   1.000
    Zr96    Zr   0.18257   0.70910   0.20385   1.000
    Zr97    Zr   0.09321   0.59302   0.24191   1.000
    Zr98    Zr   0.55874   0.14870   0.11933   1.000
    Zr99    Zr   0.64802   0.26259   0.09437   1.000
    Zr100   Zr   0.32004   0.19575   0.10002   1.000
    Zr101   Zr   0.33403   0.16928   0.22201   1.000
    O102    O    0.26200   0.96481   0.04483   1.000
    O103    O    0.22873   0.90207   0.05441   1.000
    O104    O    0.26528   0.91566   0.97481   1.000
    O105    O    0.29194   0.03020   0.05026   1.000
    O106    O    0.26070   0.99579   0.09808   1.000
    O107    O    0.19426   0.84146   0.07790   1.000
    O108    O    0.68373   0.18043   0.08602   1.000
    O109    O    0.63910   0.12349   0.09850   1.000
    O110    O    0.77417   0.04712   0.11033   1.000
    O111    O    0.73476   0.08432   0.02521   1.000
    O112    O    0.20598   0.89245   0.11385   1.000
    O113    O    0.60334   0.25451   0.10567   1.000
    O114    O    0.32913   0.20864   0.12904   1.000
    O115    O    0.55870   0.19757   0.11815   1.000
    O116    O    0.22590   0.95097   0.13995   1.000
    O117    O    0.27037   0.01761   0.17613   1.000
    O118    O    0.87482   0.99966   0.15375   1.000
    O119    O    0.82892   0.94713   0.15944   1.000
    O120    O    0.17123   0.88623   0.19815   1.000
    O121    O    0.93390   0.03762   0.15666   1.000
    O122    O    0.33613   0.19541   0.19003   1.000
    O123    O    0.94760   0.95976   0.18606   1.000
    O124    O    0.79798   0.88128   0.17404   1.000
    O125    O    0.87219   0.87361   0.19520   1.000
    O126    O    0.17954   0.66199   0.20835   1.000
    O127    O    0.16028   0.78560   0.22700   1.000
    O128    O    0.94494   0.88254   0.21106   1.000
    O129    O    0.05623   0.88913   0.22888   1.000
    O130    O    0.13486   0.60395   0.22738   1.000
    O131    O    0.93595   0.77773   0.24791   1.000
    O132    O    0.31371   0.10646   0.22025   1.000
    O133    O    0.34999   0.97505   0.23764   1.000
    O134    O    0.22231   0.06441   0.25211   1.000
    O135    O    0.02484   0.64978   0.26162   1.000
    O136    O    0.11094   0.94418   0.27162   1.000
    O137    O    0.21424   0.83985   0.27319   1.000
    O138    O    0.11392   0.82852   0.30212   1.000
    O139    O    0.39562   0.86504   0.27171   1.000
    O140    O    0.89362   0.68632   0.27976   1.000
    O141    O    0.80384   0.66511   0.31003   1.000
    O142    O    0.97824   0.72930   0.32376   1.000
    O143    O    0.11756   0.05572   0.28941   1.000
    O144    O    0.12654   0.12884   0.30488   1.000
    O145    O    0.33756   0.82061   0.29145   1.000
    O146    O    0.04024   0.05357   0.31461   1.000
    O147    O    0.11893   0.20349   0.32570   1.000
    O148    O    0.05091   0.17287   0.34058   1.000
    O149    O    0.96228   0.06790   0.34405   1.000
    O150    O    0.99830   0.12708   0.34661   1.000
    O151    O    0.78887   0.67427   0.37086   1.000
    O152    O    0.04492   0.77349   0.36014   1.000
    O153    O    0.10776   0.79297   0.38640   1.000
    O154    O    0.95075   0.22852   0.38974   1.000
    O155    O    0.99937   0.73832   0.40178   1.000
    O156    O    0.80151   0.44397   0.38209   1.000
    O157    O    0.87583   0.36408   0.40170   1.000
    O158    O    0.74514   0.39869   0.39437   1.000
    O159    O    0.81945   0.31880   0.41398   1.000
    O160    O    0.15875   0.80418   0.42246   1.000
    O161    O    0.09820   0.76949   0.44573   1.000
    O162    O    0.91542   0.26789   0.47479   1.000
    O163    O    0.96918   0.70676   0.44942   1.000
    O164    O    0.03471   0.73628   0.45505   1.000
    O165    O    0.08460   0.73208   0.52519   1.000
    O166    O    0.96466   0.26369   0.54492   1.000
    O167    O    0.90182   0.23048   0.55425   1.000
    O168    O    0.03021   0.29320   0.55058   1.000
    O169    O    0.99571   0.26163   0.59822   1.000
    O170    O    0.84126   0.19580   0.57754   1.000
    O171    O    0.18056   0.68118   0.58603   1.000
    O172    O    0.12419   0.63590   0.59827   1.000
    O173    O    0.04725   0.77146   0.61027   1.000
    O174    O    0.89226   0.20699   0.61361   1.000
    O175    O    0.25488   0.60129   0.60564   1.000
    O176    O    0.21115   0.32572   0.62913   1.000
    O177    O    0.19851   0.55601   0.61788   1.000
    O178    O    0.95081   0.22646   0.63986   1.000
    O179    O    0.01749   0.27066   0.67624   1.000
    O180    O    0.99971   0.87290   0.65340   1.000
    O181    O    0.94709   0.82711   0.65943   1.000
    O182    O    0.88611   0.17145   0.69789   1.000
    O183    O    0.03774   0.93208   0.65593   1.000
    O184    O    0.19618   0.33488   0.68996   1.000
    O185    O    0.95978   0.94641   0.68539   1.000
    O186    O    0.88109   0.79650   0.67429   1.000
    O187    O    0.87348   0.87115   0.69512   1.000
    O188    O    0.66246   0.17938   0.70854   1.000
    O189    O    0.78578   0.16014   0.72681   1.000
    O190    O    0.88246   0.94426   0.71057   1.000
    O191    O    0.88908   0.05580   0.72837   1.000
    O192    O    0.60440   0.13494   0.72826   1.000
    O193    O    0.77771   0.93557   0.74787   1.000
    O194    O    0.10640   0.31365   0.72024   1.000
    O195    O    0.97516   0.35021   0.73833   1.000
    O196    O    0.06408   0.22225   0.75205   1.000
    O197    O    0.65003   0.02493   0.76235   1.000
    O198    O    0.94380   0.11085   0.77113   1.000
    O199    O    0.83975   0.21437   0.77301   1.000
    O200    O    0.82880   0.11375   0.80185   1.000
    O201    O    0.86514   0.39604   0.77255   1.000
    O202    O    0.68632   0.89352   0.77974   1.000
    O203    O    0.66391   0.80456   0.80997   1.000
    O204    O    0.72966   0.97817   0.82386   1.000
    O205    O    0.05509   0.11744   0.78891   1.000
    O206    O    0.12784   0.12637   0.80477   1.000
    O207    O    0.82049   0.33799   0.79164   1.000
    O208    O    0.05244   0.04022   0.81395   1.000
    O209    O    0.20205   0.11872   0.82596   1.000
    O210    O    0.17111   0.05084   0.84057   1.000
    O211    O    0.06615   0.96236   0.84335   1.000
    O212    O    0.12523   0.99831   0.84626   1.000
    O213    O    0.67090   0.79133   0.87096   1.000
    O214    O    0.77413   0.04481   0.86005   1.000
    O215    O    0.79405   0.10753   0.88612   1.000
    O216    O    0.22587   0.95085   0.88968   1.000
    O217    O    0.73934   0.99924   0.90190   1.000
    O218    O    0.44134   0.80240   0.88185   1.000
    O219    O    0.36095   0.87649   0.90151   1.000
    O220    O    0.39670   0.74547   0.89431   1.000
    O221    O    0.31631   0.81955   0.91398   1.000
    O222    O    0.80578   0.15852   0.92207   1.000
    O223    O    0.77130   0.09790   0.94557   1.000
    O224    O    0.70811   0.96902   0.94972   1.000
    O225    O    0.73804   0.03441   0.95515   1.000
    N226    N    0.54964   0.63310   0.33601   1.000
    O227    O    0.63710   0.64370   0.33822   1.000
    O228    O    0.49098   0.70396   0.31791   1.000
    O229    O    0.62799   0.56327   0.35377   1.000
    N230    N    0.63209   0.55022   0.83608   1.000
    O231    O    0.70327   0.49154   0.81813   1.000
    O232    O    0.64218   0.63804   0.83833   1.000
    O233    O    0.56181   0.62863   0.85377   1.000
    N234    N    0.45038   0.36688   0.66399   1.000
    O235    O    0.37203   0.43672   0.64623   1.000
    O236    O    0.36292   0.35629   0.66177   1.000
    O237    O    0.50904   0.29603   0.68208   1.000
    N238    N    0.36794   0.44975   0.16391   1.000
    O239    O    0.29676   0.50844   0.18185   1.000
    O240    O    0.35786   0.36193   0.16167   1.000
    O241    O    0.43822   0.37135   0.14622   1.000
loop_
    _geom_bond_atom_site_label_1
    _geom_bond_atom_site_label_2
    _geom_bond_distance
    _geom_bond_site_symmetry_2
    _ccdc_geom_bond_type
    Zr68   O102      0.67146      .   S
    Zr44   O102      0.67146  1_545   S
    Zr68   O103      0.68155      .   S
    Zr43   O103      0.68155      .   S
    Zr68   O104      0.99249  1_554   S
    Zr3    O104      0.99249      .   S
    Zr19   O105      0.55085      .   S
    Zr44   O105      0.55085      .   S
    Zr44   O106      0.66452  1_545   S
    Zr67   O106      0.66452      .   S
    Zr18   O107      0.54200      .   S
    Zr43   O107      0.54200      .   S
    Zr7    O108      1.02725      .   S
    Zr99   O108      1.02725      .   S
    Zr7    O109      1.02500      .   S
    Zr98   O109      1.02500      .   S
    Zr7    O110      0.99146      .   S
    Zr77   O110      0.99146  1_565   S
    Zr7    O111      0.99251      .   S
    Zr56   O111      0.99251  1_556   S
    Zr43   O112      0.66368      .   S
    Zr66   O112      0.66368      .   S
    Zr99   O113      0.64565      .   S
    Zr48   O113      0.64565      .   S
    Zr100  O114      0.62015      .   S
    Zr49   O114      0.62015      .   S
    Zr48   O115      0.64268      .   S
    Zr98   O115      0.64268      .   S
    Zr67   O116      0.68872      .   S
    Zr66   O116      0.68872      .   S
    Zr67   O117      1.01282  1_565   S
    Zr4    O117      1.01282      .   S
    Zr77   O118      0.68148      .   S
    Zr52   O118      0.68148  1_545   S
    Zr77   O119      0.67984      .   S
    Zr53   O119      0.67984      .   S
    Zr66   O120      1.07453      .   S
    Zr9    O120      1.07453      .   S
    Zr24   O121      0.54236      .   S
    Zr52   O121      0.54236      .   S
    Zr49   O122      0.65256      .   S
    Zr101  O122      0.65256      .   S
    Zr52   O123      0.66443  1_545   S
    Zr75   O123      0.66443      .   S
    Zr25   O124      0.54263      .   S
    Zr53   O124      0.54263      .   S
    Zr53   O125      0.66381      .   S
    Zr76   O125      0.66381      .   S
    Zr96   O126      0.63350      .   S
    Zr47   O126      0.63350      .   S
    Zr96   O127      1.06538      .   S
    Zr9    O127      1.06538      .   S
    Zr75   O128      0.68723      .   S
    Zr76   O128      0.68723      .   S
    Zr75   O129      1.10757  1_655   S
    Zr9    O129      1.10757      .   S
    Zr47   O130      0.64187      .   S
    Zr97   O130      0.64187      .   S
    Zr76   O131      1.02468      .   S
    Zr6    O131      1.02468      .   S
    Zr4    O132      0.96888      .   S
    Zr101  O132      0.96888      .   S
    Zr4    O133      0.98931  1_545   S
    Zr91   O133      0.98931      .   S
    Zr4    O134      1.02415      .   S
    Zr70   O134      1.02415      .   S
    Zr97   O135      0.99063      .   S
    Zr6    O135      0.99063  1_655   S
    Zr9    O136      1.10986      .   S
    Zr69   O136      1.10986  1_545   S
    Zr9    O137      1.06431      .   S
    Zr90   O137      1.06431      .   S
    Zr9    O138      1.07610      .   S
    Zr72   O138      1.07610      .   S
    Zr91   O139      0.64173      .   S
    Zr40   O139      0.64173      .   S
    Zr95   O140      0.96867      .   S
    Zr6    O140      0.96867      .   S
    Zr95   O141      0.65260      .   S
    Zr42   O141      0.65260      .   S
    Zr6    O142      0.98254      .   S
    Zr73   O142      0.98254  1_455   S
    Zr70   O143      0.68727      .   S
    Zr69   O143      0.68727      .   S
    Zr70   O144      0.66435      .   S
    Zr46   O144      0.66435      .   S
    Zr40   O145      0.63358      .   S
    Zr90   O145      0.63358      .   S
    Zr69   O146      0.66460      .   S
    Zr45   O146      0.66460  1_655   S
    Zr46   O147      0.54263      .   S
    Zr21   O147      0.54263      .   S
    Zr46   O148      0.70355      .   S
    Zr71   O148      0.70355      .   S
    Zr45   O149      0.54230      .   S
    Zr20   O149      0.54230      .   S
    Zr45   O150      0.67020      .   S
    Zr71   O150      0.67020  1_455   S
    Zr42   O151      0.62007      .   S
    Zr94   O151      0.62007      .   S
    Zr72   O152      0.74128      .   S
    Zr73   O152      0.74128      .   S
    Zr72   O153      0.66374      .   S
    Zr50   O153      0.66374      .   S
    Zr71   O154      0.98418  1_455   S
    Zr5    O154      0.98418      .   S
    Zr73   O155      0.66267  1_455   S
    Zr51   O155      0.66267      .   S
    Zr92   O156      0.64292      .   S
    Zr41   O156      0.64292      .   S
    Zr92   O157      1.02367      .   S
    Zr5    O157      1.02367      .   S
    Zr41   O158      0.64538      .   S
    Zr93   O158      0.64538      .   S
    Zr93   O159      1.02791      .   S
    Zr5    O159      1.02791      .   S
    Zr50   O160      0.54203      .   S
    Zr22   O160      0.54203      .   S
    Zr50   O161      0.68170      .   S
    Zr74   O161      0.68170      .   S
    Zr5    O162      0.99281      .   S
    Zr62   O162      0.99281      .   S
    Zr51   O163      0.54261      .   S
    Zr23   O163      0.54261      .   S
    Zr51   O164      0.67992  1_655   S
    Zr74   O164      0.67992      .   S
    Zr74   O165      0.99344      .   S
    Zr1    O165      0.99344      .   S
    Zr62   O166      0.67306      .   S
    Zr37   O166      0.67306  1_455   S
    Zr62   O167      0.68210      .   S
    Zr36   O167      0.68210      .   S
    Zr15   O168      0.54986      .   S
    Zr37   O168      0.54986      .   S
    Zr37   O169      0.66423  1_455   S
    Zr61   O169      0.66423      .   S
    Zr14   O170      0.54202      .   S
    Zr36   O170      0.54202      .   S
    Zr1    O171      1.02791      .   S
    Zr81   O171      1.02791      .   S
    Zr1    O172      1.02347      .   S
    Zr80   O172      1.02347      .   S
    Zr1    O173      0.99264      .   S
    Zr59   O173      0.99264  1_655   S
    Zr36   O174      0.66377      .   S
    Zr60   O174      0.66377      .   S
    Zr81   O175      0.64538      .   S
    Zr27   O175      0.64538      .   S
    Zr82   O176      0.61973      .   S
    Zr28   O176      0.61973      .   S
    Zr27   O177      0.64298      .   S
    Zr80   O177      0.64298      .   S
    Zr61   O178      0.68867      .   S
    Zr60   O178      0.68867      .   S
    Zr61   O179      1.01257  1_655   S
    Zr2    O179      1.01257      .   S
    Zr59   O180      0.68163      .   S
    Zr31   O180      0.68163  1_455   S
    Zr59   O181      0.67964      .   S
    Zr32   O181      0.67964      .   S
    Zr60   O182      1.07607      .   S
    Zr8    O182      1.07607      .   S
    Zr12   O183      0.54237      .   S
    Zr31   O183      0.54237      .   S
    Zr28   O184      0.65292      .   S
    Zr83   O184      0.65292      .   S
    Zr31   O185      0.66445  1_455   S
    Zr57   O185      0.66445      .   S
    Zr13   O186      0.54263      .   S
    Zr32   O186      0.54263      .   S
    Zr32   O187      0.66434      .   S
    Zr58   O187      0.66434      .   S
    Zr78   O188      0.63356      .   S
    Zr26   O188      0.63356      .   S
    Zr78   O189      1.06433      .   S
    Zr8    O189      1.06433      .   S
    Zr57   O190      0.68727      .   S
    Zr58   O190      0.68727      .   S
    Zr57   O191      1.10999  1_565   S
    Zr8    O191      1.10999      .   S
    Zr26   O192      0.64192      .   S
    Zr79   O192      0.64192      .   S
    Zr58   O193      1.02404      .   S
    Zr0    O193      1.02404      .   S
    Zr2    O194      0.96867      .   S
    Zr83   O194      0.96867      .   S
    Zr2    O195      0.99057  1_455   S
    Zr85   O195      0.99057      .   S
    Zr2    O196      1.02428      .   S
    Zr64   O196      1.02428      .   S
    Zr79   O197      0.98921      .   S
    Zr0    O197      0.98921  1_565   S
    Zr8    O198      1.10767      .   S
    Zr63   O198      1.10767  1_455   S
    Zr8    O199      1.06534      .   S
    Zr84   O199      1.06534      .   S
    Zr8    O200      1.07445      .   S
    Zr54   O200      1.07445      .   S
    Zr85   O201      0.64187      .   S
    Zr33   O201      0.64187      .   S
    Zr89   O202      0.96883      .   S
    Zr0    O202      0.96883      .   S
    Zr89   O203      0.65250      .   S
    Zr35   O203      0.65250      .   S
    Zr0    O204      0.98407      .   S
    Zr55   O204      0.98407  1_545   S
    Zr64   O205      0.68720      .   S
    Zr63   O205      0.68720      .   S
    Zr64   O206      0.66427      .   S
    Zr39   O206      0.66427      .   S
    Zr33   O207      0.63350      .   S
    Zr84   O207      0.63350      .   S
    Zr63   O208      0.66439      .   S
    Zr38   O208      0.66439  1_565   S
    Zr39   O209      0.54263      .   S
    Zr17   O209      0.54263      .   S
    Zr39   O210      0.70371      .   S
    Zr65   O210      0.70371      .   S
    Zr38   O211      0.54236      .   S
    Zr16   O211      0.54236      .   S
    Zr38   O212      0.67012      .   S
    Zr65   O212      0.67012  1_545   S
    Zr35   O213      0.62023      .   S
    Zr88   O213      0.62023      .   S
    Zr54   O214      0.73972      .   S
    Zr55   O214      0.73972      .   S
    Zr54   O215      0.66334      .   S
    Zr29   O215      0.66334      .   S
    Zr65   O216      0.98295  1_545   S
    Zr3    O216      0.98295      .   S
    Zr55   O217      0.66252  1_545   S
    Zr30   O217      0.66252      .   S
    Zr86   O218      0.64269      .   S
    Zr34   O218      0.64269      .   S
    Zr86   O219      1.02503      .   S
    Zr3    O219      1.02503      .   S
    Zr34   O220      0.64565      .   S
    Zr87   O220      0.64565      .   S
    Zr87   O221      1.02727      .   S
    Zr3    O221      1.02727      .   S
    Zr29   O222      0.54210      .   S
    Zr10   O222      0.54210      .   S
    Zr29   O223      0.68183      .   S
    Zr56   O223      0.68183      .   S
    Zr30   O224      0.54272      .   S
    Zr11   O224      0.54272      .   S
    Zr30   O225      0.68003  1_565   S
    Zr56   O225      0.68003      .   S
    N226   O227      1.22200      .   S
    Zr42   O227      1.97619      .   S
    N226   O228      1.01290      .   S
    Zr40   O228      1.76051      .   S
    N226   O229      1.14693      .   S
    Zr41   O229      1.88390      .   S
    N230   O231      1.01334      .   S
    Zr33   O231      1.76115      .   S
    N230   O232      1.22195      .   S
    Zr35   O232      1.97614      .   S
    N230   O233      1.14748      .   S
    Zr34   O233      1.88479      .   S
    N234   O235      1.14689      .   S
    Zr27   O235      1.88385      .   S
    N234   O236      1.22203      .   S
    Zr28   O236      1.97622      .   S
    N234   O237      1.01286      .   S
    Zr26   O237      1.76027      .   S
    N238   O239      1.01334      .   S
    Zr47   O239      1.76115      .   S
    N238   O240      1.22195      .   S
    Zr49   O240      1.97614      .   S
    N238   O241      1.14749      .   S
    Zr48   O241      1.88480      .   S
