# CIF file generated by openbabel 2.4.90, see http://openbabel.sf.net
data_I
_chemical_name_common ''
_cell_length_a 7.962
_cell_length_b 14.332
_cell_length_c 14.571
_cell_angle_alpha 89.469
_cell_angle_beta 85.678
_cell_angle_gamma 89.185
_space_group_name_H-M_alt 'P 1'
_space_group_name_Hall 'P 1'
loop_
    _symmetry_equiv_pos_as_xyz
    x,y,z
loop_
    _atom_site_label
    _atom_site_type_symbol
    _atom_site_fract_x
    _atom_site_fract_y
    _atom_site_fract_z
    _atom_site_occupancy
    Ag0     Ag   0.27013   0.57773   0.43884   1.000
    Ag1     Ag   0.72671   0.07809   0.06166   1.000
    Ag2     Ag   0.23888   0.06892   0.06305   1.000
    Ag3     Ag   0.73543   0.42150   0.56172   1.000
    Ag4     Ag   0.24096   0.42978   0.56571   1.000
    Ag5     Ag   0.76322   0.93036   0.93655   1.000
    Ag6     Ag   0.27560   0.92115   0.93798   1.000
    Ag7     Ag   0.76478   0.56947   0.43483   1.000
loop_
    _geom_bond_atom_site_label_1
    _geom_bond_atom_site_label_2
    _geom_bond_distance
    _geom_bond_site_symmetry_2
    _ccdc_geom_bond_type
    Ag1    Ag5       2.80443  1_544   S
    Ag2    Ag6       2.80465  1_544   S
    Ag7    Ag3       2.80111      .   S
    Ag0    Ag4       2.80069      .   S
