# CIF file generated by openbabel 2.4.90, see http://openbabel.sf.net
data_I
_chemical_name_common ''
_cell_length_a 7.962
_cell_length_b 14.332
_cell_length_c 14.571
_cell_angle_alpha 89.469
_cell_angle_beta 85.678
_cell_angle_gamma 89.185
_space_group_name_H-M_alt 'P 1'
_space_group_name_Hall 'P 1'
loop_
    _symmetry_equiv_pos_as_xyz
    x,y,z
loop_
    _atom_site_label
    _atom_site_type_symbol
    _atom_site_fract_x
    _atom_site_fract_y
    _atom_site_fract_z
    _atom_site_occupancy
    Zr0     Zr   0.76478   0.56947   0.43483   1.000
    Zr1     Zr   0.27013   0.57773   0.43884   1.000
    Zr2     Zr   0.72671   0.07809   0.06166   1.000
    Zr3     Zr   0.23888   0.06892   0.06305   1.000
    Zr4     Zr   0.73543   0.42150   0.56172   1.000
    Zr5     Zr   0.24096   0.42978   0.56571   1.000
    Zr6     Zr   0.76322   0.93036   0.93655   1.000
    Zr7     Zr   0.27560   0.92115   0.93798   1.000
    O8      O    0.74497   0.00422   0.99911   1.000
    O9      O    0.25724   0.99504   0.00051   1.000
    O10     O    0.75011   0.49548   0.49828   1.000
    O11     O    0.25555   0.50375   0.50228   1.000
    N12     N    0.50990   0.21742   0.77063   1.000
    O13     O    0.59091   0.29291   0.69289   1.000
    O14     O    0.41083   0.10015   0.83069   1.000
    O15     O    0.41656   0.16196   0.89042   1.000
    N16     N    0.50006   0.71676   0.72953   1.000
    O17     O    0.41905   0.79215   0.80717   1.000
    O18     O    0.59127   0.66210   0.60914   1.000
    O19     O    0.60040   0.59970   0.66924   1.000
    N20     N    0.99218   0.72418   0.72978   1.000
    O21     O    0.08779   0.66911   0.61070   1.000
    O22     O    0.09717   0.60736   0.67126   1.000
    O23     O    0.90926   0.80027   0.80655   1.000
    N24     N    0.02560   0.27562   0.27047   1.000
    O25     O    0.91490   0.39235   0.32910   1.000
    O26     O    0.92429   0.33060   0.38967   1.000
    O27     O    0.10124   0.19937   0.19350   1.000
    N28     N    0.50552   0.28311   0.27053   1.000
    O29     O    0.58538   0.20752   0.19275   1.000
    O30     O    0.40555   0.40006   0.33098   1.000
    O31     O    0.41473   0.33765   0.39107   1.000
    N32     N    0.98729   0.77674   0.22729   1.000
    O33     O    0.90666   0.70026   0.30438   1.000
    O34     O    0.09241   0.89270   0.16852   1.000
    O35     O    0.08532   0.83161   0.10851   1.000
    N36     N    0.49202   0.78251   0.22944   1.000
    O37     O    0.41231   0.70681   0.30735   1.000
    O38     O    0.59078   0.89966   0.16920   1.000
    O39     O    0.58499   0.83784   0.10949   1.000
    N40     N    0.02559   0.22325   0.77278   1.000
    O41     O    0.92194   0.16819   0.89142   1.000
    O42     O    0.10209   0.29951   0.69586   1.000
    O43     O    0.91461   0.10721   0.83136   1.000
loop_
    _geom_bond_atom_site_label_1
    _geom_bond_atom_site_label_2
    _geom_bond_distance
    _geom_bond_site_symmetry_2
    _ccdc_geom_bond_type
    Zr2    O8        1.40222  1_554   S
    Zr6    O8        1.40222  1_565   S
    Zr3    O9        1.40233  1_545   S
    Zr7    O9        1.40233  1_556   S
    Zr0    O10       1.40055      .   S
    Zr4    O10       1.40055      .   S
    Zr1    O11       1.40034      .   S
    Zr5    O11       1.40034      .   S
    N12    O13       1.66028      .   S
    Zr4    O13       2.83501      .   S
    N12    O14       2.02963      .   S
    Zr7    O14       3.15202  1_565   S
    N12    O15       2.00663      .   S
    Zr3    O15       3.09219  1_554   S
    N16    O17       1.66019      .   S
    Zr7    O17       2.83417      .   S
    N16    O18       2.00880      .   S
    Zr0    O18       3.09893      .   S
    N16    O19       2.02674      .   S
    Zr4    O19       3.14257      .   S
    N20    O21       2.00555  1_655   S
    Zr1    O21       3.09067      .   S
    N20    O22       2.02679  1_655   S
    Zr5    O22       3.14287      .   S
    N20    O23       1.66357      .   S
    Zr6    O23       2.84398      .   S
    N24    O25       2.04364  1_455   S
    Zr0    O25       3.15509      .   S
    N24    O26       2.02091  1_455   S
    Zr4    O26       3.11126      .   S
    N24    O27       1.64839      .   S
    Zr3    O27       2.82885      .   S
    N28    O29       1.66035      .   S
    Zr2    O29       2.83515      .   S
    N28    O30       2.02545      .   S
    Zr1    O30       3.13966      .   S
    N28    O31       2.00908      .   S
    Zr5    O31       3.10051      .   S
    N32    O33       1.66250      .   S
    Zr0    O33       2.84144      .   S
    N32    O34       2.02502  1_655   S
    Zr3    O34       3.13730  1_545   S
    N32    O35       2.00295  1_655   S
    Zr7    O35       3.08949  1_556   S
    N36    O37       1.66038      .   S
    Zr1    O37       2.83585      .   S
    N36    O38       2.02832      .   S
    Zr2    O38       3.14881  1_545   S
    N36    O39       2.00688      .   S
    Zr6    O39       3.09419  1_556   S
    N40    O41       2.01744  1_455   S
    Zr2    O41       3.10702  1_554   S
    N40    O42       1.64777      .   S
    Zr5    O42       2.82522      .   S
    N40    O43       2.04385  1_455   S
    Zr6    O43       3.15638  1_565   S
