# CIF file generated by openbabel 2.4.90, see http://openbabel.sf.net
data_I
_chemical_name_common ''
_cell_length_a 7.962
_cell_length_b 14.332
_cell_length_c 14.571
_cell_angle_alpha 89.469
_cell_angle_beta 85.678
_cell_angle_gamma 89.185
_space_group_name_H-M_alt 'P 1'
_space_group_name_Hall 'P 1'
loop_
    _symmetry_equiv_pos_as_xyz
    x,y,z
loop_
    _atom_site_label
    _atom_site_type_symbol
    _atom_site_fract_x
    _atom_site_fract_y
    _atom_site_fract_z
    _atom_site_occupancy
    C0      C    0.76478   0.56947   0.43483   1.000
    C1      C    0.27013   0.57773   0.43884   1.000
    C2      C    0.72671   0.07809   0.06166   1.000
    C3      C    0.23888   0.06892   0.06305   1.000
    C4      C    0.73543   0.42150   0.56172   1.000
    C5      C    0.24096   0.42978   0.56571   1.000
    C6      C    0.76322   0.93036   0.93655   1.000
    C7      C    0.27560   0.92115   0.93798   1.000
    C8      C    0.79936   0.60456   0.22027   1.000
    C9      C    0.30387   0.61014   0.22529   1.000
    C10     C    0.90891   0.71821   0.09805   1.000
    C11     C    0.41142   0.72249   0.10135   1.000
    C12     C    0.10109   0.88100   0.31178   1.000
    C13     C    0.60801   0.88754   0.31209   1.000
    C14     C    0.98819   0.75963   0.42615   1.000
    C15     C    0.49908   0.76666   0.42809   1.000
    C16     C    0.70252   0.11074   0.27429   1.000
    C17     C    0.20914   0.10298   0.27777   1.000
    C18     C    0.59336   0.22209   0.39807   1.000
    C19     C    0.09711   0.21589   0.39960   1.000
    C20     C    0.38124   0.38878   0.18820   1.000
    C21     C    0.00000   0.38046   0.18591   1.000
    C22     C    0.49222   0.26869   0.07236   1.000
    C23     C    0.00712   0.25937   0.07210   1.000
    C24     C    0.69809   0.38973   0.77531   1.000
    C25     C    0.20259   0.39542   0.78031   1.000
    C26     C    0.58870   0.27762   0.89900   1.000
    C27     C    0.09135   0.28197   0.90229   1.000
    C28     C    0.39481   0.11238   0.68758   1.000
    C29     C    0.00000   0.11895   0.68792   1.000
    C30     C    0.50564   0.23299   0.57180   1.000
    C31     C    0.01663   0.24005   0.57376   1.000
    C32     C    0.79642   0.89675   0.72204   1.000
    C33     C    0.30290   0.88904   0.72532   1.000
    C34     C    0.90995   0.78405   0.60041   1.000
    C35     C    0.41367   0.77789   0.60174   1.000
    C36     C    0.11255   0.61930   0.81466   1.000
    C37     C    0.62360   0.61108   0.81222   1.000
    C38     C    0.99616   0.74017   0.92830   1.000
    C39     C    0.51096   0.73093   0.92789   1.000
    C40     C    0.86651   0.66697   0.23780   1.000
    C41     C    0.37198   0.67259   0.24170   1.000
    C42     C    0.92756   0.72971   0.17029   1.000
    C43     C    0.43186   0.73461   0.17327   1.000
    C44     C    0.01343   0.80851   0.19612   1.000
    C45     C    0.51811   0.81374   0.19782   1.000
    C46     C    0.03324   0.82073   0.28980   1.000
    C47     C    0.54018   0.82685   0.29113   1.000
    C48     C    0.96998   0.75424   0.35296   1.000
    C49     C    0.47876   0.76076   0.35520   1.000
    C50     C    0.59280   0.88129   0.12629   1.000
    C51     C    0.09199   0.87579   0.12548   1.000
    C52     C    0.63055   0.17325   0.25798   1.000
    C53     C    0.13841   0.16553   0.26016   1.000
    C54     C    0.56978   0.23475   0.32637   1.000
    C55     C    0.07609   0.22788   0.32746   1.000
    C56     C    0.47875   0.31411   0.30206   1.000
    C57     C    0.00000   0.30712   0.30150   1.000
    C58     C    0.45280   0.32791   0.20900   1.000
    C59     C    0.00000   0.31989   0.20797   1.000
    C60     C    0.51535   0.26224   0.14499   1.000
    C61     C    0.02780   0.25364   0.14510   1.000
    C62     C    0.90814   0.37471   0.37190   1.000
    C63     C    0.40356   0.38115   0.37381   1.000
    C64     C    0.63016   0.32729   0.75869   1.000
    C65     C    0.13567   0.33299   0.76258   1.000
    C66     C    0.56922   0.26541   0.82698   1.000
    C67     C    0.07366   0.27038   0.82996   1.000
    C68     C    0.48321   0.18627   0.80220   1.000
    C69     C    0.00000   0.19156   0.80389   1.000
    C70     C    0.46241   0.17308   0.70876   1.000
    C71     C    0.00000   0.17922   0.71010   1.000
    C72     C    0.52489   0.23902   0.64481   1.000
    C73     C    0.03378   0.24557   0.64707   1.000
    C74     C    0.90880   0.12433   0.87438   1.000
    C75     C    0.40768   0.11877   0.87356   1.000
    C76     C    0.86701   0.83421   0.73983   1.000
    C77     C    0.37475   0.82654   0.74181   1.000
    C78     C    0.93017   0.77197   0.67263   1.000
    C79     C    0.43648   0.76517   0.67353   1.000
    C80     C    0.01978   0.69274   0.69879   1.000
    C81     C    0.52730   0.68580   0.69804   1.000
    C82     C    0.04173   0.67987   0.79242   1.000
    C83     C    0.55223   0.67195   0.79122   1.000
    C84     C    0.97638   0.74601   0.85521   1.000
    C85     C    0.48874   0.73748   0.85514   1.000
    C86     C    0.60340   0.61888   0.62640   1.000
    C87     C    0.09870   0.62522   0.62851   1.000
    C88     C    0.88728   0.67809   0.32810   1.000
    C89     C    0.39507   0.68448   0.33167   1.000
    C90     C    0.60375   0.18578   0.16828   1.000
    C91     C    0.11489   0.17730   0.17000   1.000
    C92     C    0.60839   0.31528   0.66857   1.000
    C93     C    0.11623   0.32173   0.67214   1.000
    C94     C    0.88946   0.82235   0.83011   1.000
    C95     C    0.40048   0.81393   0.83165   1.000
    C96     C    0.65238   0.95554   0.15626   1.000
    C97     C    0.15619   0.94838   0.15647   1.000
    C98     C    0.59272   0.85597   0.04252   1.000
    C99     C    0.09110   0.85182   0.04147   1.000
    C100    C    0.84361   0.44868   0.34064   1.000
    C101    C    0.34101   0.45628   0.34400   1.000
    C102    C    0.91052   0.34965   0.45600   1.000
    C103    C    0.40692   0.35462   0.45749   1.000
    C104    C    0.84406   0.05196   0.84334   1.000
    C105    C    0.34794   0.04462   0.84355   1.000
    C106    C    0.90987   0.14817   0.95844   1.000
    C107    C    0.40758   0.14405   0.95737   1.000
    C108    C    0.66605   0.54380   0.65621   1.000
    C109    C    0.16337   0.55132   0.65977   1.000
    C110    C    0.60018   0.64540   0.54269   1.000
    C111    C    0.09666   0.65035   0.54439   1.000
    O112    O    0.09155   0.86380   0.08348   1.000
    O113    O    0.18335   0.88648   0.98972   1.000
    O114    O    0.59276   0.86863   0.08440   1.000
    O115    O    0.67797   0.89316   0.98953   1.000
    O116    O    0.68955   0.01681   0.10896   1.000
    O117    O    0.66523   0.13193   0.11497   1.000
    O118    O    0.74497   0.00422   0.99911   1.000
    O119    O    0.81829   0.11313   0.01005   1.000
    O120    O    0.19753   0.00865   0.10976   1.000
    O121    O    0.17688   0.12311   0.11653   1.000
    O122    O    0.25724   0.99504   0.00051   1.000
    O123    O    0.32323   0.10649   0.01021   1.000
    O124    O    0.01746   0.25650   0.10860   1.000
    O125    O    0.50378   0.26546   0.10868   1.000
    O126    O    0.91823   0.72396   0.13417   1.000
    O127    O    0.42164   0.72855   0.13731   1.000
    O128    O    0.12409   0.91209   0.14098   1.000
    O129    O    0.05271   0.84215   0.16080   1.000
    O130    O    0.62259   0.91841   0.14127   1.000
    O131    O    0.55546   0.84751   0.16205   1.000
    O132    O    0.55955   0.22401   0.15664   1.000
    O133    O    0.48408   0.29507   0.17700   1.000
    O134    O    0.07134   0.21547   0.15755   1.000
    O135    O    0.01390   0.28676   0.17653   1.000
    O136    O    0.61715   0.17951   0.21313   1.000
    O137    O    0.12665   0.17141   0.21508   1.000
    O138    O    0.97049   0.76911   0.18320   1.000
    O139    O    0.89703   0.69834   0.20404   1.000
    O140    O    0.47499   0.77417   0.18554   1.000
    O141    O    0.40192   0.70360   0.20749   1.000
    O142    O    0.00000   0.35017   0.19694   1.000
    O143    O    0.41702   0.35835   0.19860   1.000
    O144    O    0.02333   0.81462   0.24296   1.000
    O145    O    0.52915   0.82029   0.24447   1.000
    O146    O    0.00000   0.31351   0.25474   1.000
    O147    O    0.46578   0.32101   0.25553   1.000
    O148    O    0.83293   0.63577   0.22903   1.000
    O149    O    0.33793   0.64137   0.23350   1.000
    O150    O    0.87690   0.67253   0.28295   1.000
    O151    O    0.38352   0.67854   0.28668   1.000
    O152    O    0.66654   0.14200   0.26614   1.000
    O153    O    0.60017   0.20400   0.29218   1.000
    O154    O    0.17378   0.13426   0.26897   1.000
    O155    O    0.10725   0.19670   0.29381   1.000
    O156    O    0.06716   0.85086   0.30079   1.000
    O157    O    0.00161   0.78748   0.32138   1.000
    O158    O    0.57409   0.85720   0.30161   1.000
    O159    O    0.50947   0.79380   0.32316   1.000
    O160    O    0.03805   0.26750   0.31448   1.000
    O161    O    0.95407   0.34092   0.33670   1.000
    O162    O    0.52427   0.27443   0.31421   1.000
    O163    O    0.44116   0.34763   0.33793   1.000
    O164    O    0.58157   0.22842   0.36222   1.000
    O165    O    0.08660   0.22188   0.36353   1.000
    O166    O    0.92863   0.71616   0.34053   1.000
    O167    O    0.82603   0.62378   0.38147   1.000
    O168    O    0.43692   0.72262   0.34343   1.000
    O169    O    0.33260   0.63110   0.38526   1.000
    O170    O    0.87587   0.41169   0.35627   1.000
    O171    O    0.80419   0.50907   0.38774   1.000
    O172    O    0.37229   0.41872   0.35890   1.000
    O173    O    0.30557   0.51700   0.39142   1.000
    O174    O    0.97908   0.75693   0.38955   1.000
    O175    O    0.48892   0.76371   0.39165   1.000
    O176    O    0.90933   0.36218   0.41395   1.000
    O177    O    0.40524   0.36789   0.41565   1.000
    O178    O    0.68248   0.60743   0.48876   1.000
    O179    O    0.75011   0.49548   0.49828   1.000
    O180    O    0.18339   0.61404   0.49162   1.000
    O181    O    0.25555   0.50375   0.50228   1.000
    O182    O    0.82298   0.38557   0.50886   1.000
    O183    O    0.32394   0.39220   0.51160   1.000
    O184    O    0.60179   0.63214   0.58454   1.000
    O185    O    0.09768   0.63778   0.58645   1.000
    O186    O    0.70074   0.48265   0.60896   1.000
    O187    O    0.67191   0.36839   0.61514   1.000
    O188    O    0.20217   0.49055   0.61274   1.000
    O189    O    0.17859   0.37576   0.61893   1.000
    O190    O    0.51526   0.23600   0.60830   1.000
    O191    O    0.02520   0.24281   0.61042   1.000
    O192    O    0.92006   0.77801   0.63652   1.000
    O193    O    0.42507   0.77153   0.63763   1.000
    O194    O    0.63472   0.58134   0.64130   1.000
    O195    O    0.56535   0.65234   0.66222   1.000
    O196    O    0.13104   0.58827   0.64414   1.000
    O197    O    0.05924   0.65898   0.66365   1.000
    O198    O    0.56664   0.27715   0.65669   1.000
    O199    O    0.49365   0.20605   0.67678   1.000
    O200    O    0.07500   0.28365   0.65960   1.000
    O201    O    0.01689   0.21240   0.67858   1.000
    O202    O    0.61927   0.32129   0.71363   1.000
    O203    O    0.12595   0.32736   0.71736   1.000
    O204    O    0.97497   0.73235   0.68571   1.000
    O205    O    0.89859   0.80309   0.70623   1.000
    O206    O    0.48189   0.72549   0.68578   1.000
    O207    O    0.40561   0.79585   0.70767   1.000
    O208    O    0.42861   0.14273   0.69817   1.000
    O209    O    0.00000   0.14909   0.69901   1.000
    O210    O    0.53976   0.67887   0.74463   1.000
    O211    O    0.03075   0.68631   0.74561   1.000
    O212    O    0.47281   0.17967   0.75548   1.000
    O213    O    0.00000   0.18539   0.75700   1.000
    O214    O    0.83171   0.86548   0.73094   1.000
    O215    O    0.33883   0.85779   0.73356   1.000
    O216    O    0.87823   0.82828   0.78497   1.000
    O217    O    0.38762   0.82024   0.78673   1.000
    O218    O    0.66412   0.35851   0.76700   1.000
    O219    O    0.59969   0.29635   0.79283   1.000
    O220    O    0.16913   0.36421   0.77144   1.000
    O221    O    0.10467   0.30169   0.79627   1.000
    O222    O    0.58792   0.64151   0.80172   1.000
    O223    O    0.52049   0.70471   0.82318   1.000
    O224    O    0.07714   0.64959   0.80354   1.000
    O225    O    0.00905   0.71294   0.82381   1.000
    O226    O    0.52621   0.22584   0.81459   1.000
    O227    O    0.44545   0.15252   0.83788   1.000
    O228    O    0.03683   0.23097   0.81693   1.000
    O229    O    0.95440   0.15795   0.83914   1.000
    O230    O    0.57896   0.27152   0.86299   1.000
    O231    O    0.08250   0.27617   0.86613   1.000
    O232    O    0.93292   0.78418   0.84266   1.000
    O233    O    0.82634   0.87636   0.88333   1.000
    O234    O    0.44461   0.77570   0.84339   1.000
    O235    O    0.33804   0.86754   0.88481   1.000
    O236    O    0.87643   0.08815   0.85886   1.000
    O237    O    0.80364   0.99116   0.88995   1.000
    O238    O    0.37781   0.08170   0.85855   1.000
    O239    O    0.31177   0.98288   0.89076   1.000
    O240    O    0.49985   0.73421   0.89151   1.000
    O241    O    0.98627   0.74309   0.89176   1.000
    O242    O    0.40763   0.13141   0.91547   1.000
    O243    O    0.90933   0.13625   0.91641   1.000
loop_
    _geom_bond_atom_site_label_1
    _geom_bond_atom_site_label_2
    _geom_bond_distance
    _geom_bond_site_symmetry_2
    _ccdc_geom_bond_type
    C99    O112      0.63749      .   S
    C51    O112      0.63749      .   S
    C99    O113      1.12909  1_554   S
    C7     O113      1.12909      .   S
    C98    O114      0.63833      .   S
    C50    O114      0.63833      .   S
    C98    O115      1.12451  1_554   S
    C6     O115      1.12451      .   S
    C2     O116      1.13987      .   S
    C96    O116      1.13987  1_565   S
    C2     O117      1.17539      .   S
    C90    O117      1.17539      .   S
    C2     O118      1.40222  1_554   S
    C6     O118      1.40222  1_565   S
    C2     O119      1.12699      .   S
    C106   O119      1.12699  1_556   S
    C3     O120      1.13189      .   S
    C97    O120      1.13189  1_565   S
    C3     O121      1.18163      .   S
    C91    O121      1.18163      .   S
    C3     O122      1.40233  1_545   S
    C7     O122      1.40233  1_556   S
    C3     O123      1.12174      .   S
    C107   O123      1.12174  1_556   S
    C23    O124      0.54533      .   S
    C61    O124      0.54533      .   S
    C22    O125      0.54537      .   S
    C60    O125      0.54537      .   S
    C10    O126      0.54419      .   S
    C42    O126      0.54419      .   S
    C11    O127      0.54423      .   S
    C43    O127      0.54423      .   S
    C51    O128      0.63368      .   S
    C97    O128      0.63368      .   S
    C51    O129      0.75541      .   S
    C44    O129      0.75541      .   S
    C50    O130      0.63291      .   S
    C96    O130      0.63291      .   S
    C50    O131      0.75522      .   S
    C45    O131      0.75522      .   S
    C60    O132      0.67427      .   S
    C90    O132      0.67427      .   S
    C60    O133      0.69581      .   S
    C58    O133      0.69581      .   S
    C61    O134      0.67428      .   S
    C91    O134      0.67428      .   S
    C61    O135      0.66514      .   S
    C59    O135      0.66514      .   S
    C90    O136      0.67506      .   S
    C52    O136      0.67506      .   S
    C91    O137      0.67477      .   S
    C53    O137      0.67477      .   S
    C42    O138      0.69879      .   S
    C44    O138      0.69879  1_455   S
    C42    O139      0.69576      .   S
    C40    O139      0.69576      .   S
    C43    O140      0.69866      .   S
    C45    O140      0.69866      .   S
    C43    O141      0.69558      .   S
    C41    O141      0.69558      .   S
    C21    O142      0.46144      .   S
    C59    O142      0.46144      .   S
    C20    O143      0.54423      .   S
    C58    O143      0.54423      .   S
    C44    O144      0.69938      .   S
    C46    O144      0.69938      .   S
    C45    O145      0.69939      .   S
    C47    O145      0.69939      .   S
    C59    O146      0.68665      .   S
    C57    O146      0.68665      .   S
    C58    O147      0.69939      .   S
    C56    O147      0.69939      .   S
    C8     O148      0.54534      .   S
    C40    O148      0.54534      .   S
    C9     O149      0.54534      .   S
    C41    O149      0.54534      .   S
    C40    O150      0.67485      .   S
    C88    O150      0.67485      .   S
    C41    O151      0.67507      .   S
    C89    O151      0.67507      .   S
    C52    O152      0.54533      .   S
    C16    O152      0.54533      .   S
    C52    O153      0.69554      .   S
    C54    O153      0.69554      .   S
    C53    O154      0.54536      .   S
    C17    O154      0.54536      .   S
    C53    O155      0.69585      .   S
    C55    O155      0.69585      .   S
    C46    O156      0.54428      .   S
    C12    O156      0.54428      .   S
    C46    O157      0.69572      .   S
    C48    O157      0.69572  1_655   S
    C47    O158      0.54424      .   S
    C13    O158      0.54424      .   S
    C47    O159      0.69566      .   S
    C49    O159      0.69566      .   S
    C57    O160      0.67212      .   S
    C55    O160      0.67212      .   S
    C57    O161      0.77634  1_455   S
    C62    O161      0.77634      .   S
    C56    O162      0.69861      .   S
    C54    O162      0.69861      .   S
    C56    O163      0.75541      .   S
    C63    O163      0.75541      .   S
    C54    O164      0.54421      .   S
    C18    O164      0.54421      .   S
    C55    O165      0.54422      .   S
    C19    O165      0.54422      .   S
    C88    O166      0.67441      .   S
    C48    O166      0.67441      .   S
    C88    O167      1.17931      .   S
    C0     O167      1.17931      .   S
    C89    O168      0.67429      .   S
    C49    O168      0.67429      .   S
    C89    O169      1.17621      .   S
    C1     O169      1.17621      .   S
    C100   O170      0.63365      .   S
    C62    O170      0.63365      .   S
    C100   O171      1.13556      .   S
    C0     O171      1.13556      .   S
    C101   O172      0.63341      .   S
    C63    O172      0.63341      .   S
    C101   O173      1.13541      .   S
    C1     O173      1.13541      .   S
    C48    O174      0.54537      .   S
    C14    O174      0.54537      .   S
    C49    O175      0.54532      .   S
    C15    O175      0.54532      .   S
    C62    O176      0.63765      .   S
    C102   O176      0.63765      .   S
    C63    O177      0.63797      .   S
    C103   O177      0.63797      .   S
    C0     O178      1.12388      .   S
    C110   O178      1.12388      .   S
    C0     O179      1.40055      .   S
    C4     O179      1.40055      .   S
    C1     O180      1.12082      .   S
    C111   O180      1.12082      .   S
    C1     O181      1.40034      .   S
    C5     O181      1.40034      .   S
    C102   O182      1.12266      .   S
    C4     O182      1.12266      .   S
    C103   O183      1.12582      .   S
    C5     O183      1.12582      .   S
    C110   O184      0.63811      .   S
    C86    O184      0.63811      .   S
    C111   O185      0.63775      .   S
    C87    O185      0.63775      .   S
    C4     O186      1.13747      .   S
    C108   O186      1.13747      .   S
    C4     O187      1.17552      .   S
    C92    O187      1.17552      .   S
    C5     O188      1.13800      .   S
    C109   O188      1.13800      .   S
    C5     O189      1.17861      .   S
    C93    O189      1.17861      .   S
    C30    O190      0.54531      .   S
    C72    O190      0.54531      .   S
    C31    O191      0.54535      .   S
    C73    O191      0.54535      .   S
    C34    O192      0.54421      .   S
    C78    O192      0.54421      .   S
    C35    O193      0.54419      .   S
    C79    O193      0.54419      .   S
    C86    O194      0.63328      .   S
    C108   O194      0.63328      .   S
    C86    O195      0.75557      .   S
    C81    O195      0.75557      .   S
    C87    O196      0.63351      .   S
    C109   O196      0.63351      .   S
    C87    O197      0.75567      .   S
    C80    O197      0.75567      .   S
    C72    O198      0.67436      .   S
    C92    O198      0.67436      .   S
    C72    O199      0.69570      .   S
    C70    O199      0.69570      .   S
    C73    O200      0.67450      .   S
    C93    O200      0.67450      .   S
    C73    O201      0.66593      .   S
    C71    O201      0.66593      .   S
    C92    O202      0.67513      .   S
    C64    O202      0.67513      .   S
    C93    O203      0.67491      .   S
    C65    O203      0.67491      .   S
    C78    O204      0.69884      .   S
    C80    O204      0.69884  1_455   S
    C78    O205      0.69585      .   S
    C76    O205      0.69585      .   S
    C79    O206      0.69866      .   S
    C81    O206      0.69866      .   S
    C79    O207      0.69555      .   S
    C77    O207      0.69555      .   S
    C28    O208      0.54424      .   S
    C70    O208      0.54424      .   S
    C29    O209      0.46258      .   S
    C71    O209      0.46258      .   S
    C81    O210      0.69939      .   S
    C83    O210      0.69939      .   S
    C80    O211      0.69934      .   S
    C82    O211      0.69934      .   S
    C70    O212      0.69938      .   S
    C68    O212      0.69938      .   S
    C71    O213      0.68982      .   S
    C69    O213      0.68982      .   S
    C32    O214      0.54535      .   S
    C76    O214      0.54535      .   S
    C33    O215      0.54531      .   S
    C77    O215      0.54531      .   S
    C76    O216      0.67484      .   S
    C94    O216      0.67484      .   S
    C77    O217      0.67513      .   S
    C95    O217      0.67513      .   S
    C64    O218      0.54533      .   S
    C24    O218      0.54533      .   S
    C64    O219      0.69559      .   S
    C66    O219      0.69559      .   S
    C65    O220      0.54532      .   S
    C25    O220      0.54532      .   S
    C65    O221      0.69576      .   S
    C67    O221      0.69576      .   S
    C83    O222      0.54424      .   S
    C37    O222      0.54424      .   S
    C83    O223      0.69585      .   S
    C85    O223      0.69585      .   S
    C82    O224      0.54428      .   S
    C36    O224      0.54428      .   S
    C82    O225      0.69577      .   S
    C84    O225      0.69577  1_655   S
    C68    O226      0.69872      .   S
    C66    O226      0.69872      .   S
    C68    O227      0.75538      .   S
    C75    O227      0.75538      .   S
    C69    O228      0.67541      .   S
    C67    O228      0.67541      .   S
    C69    O229      0.77456  1_455   S
    C74    O229      0.77456      .   S
    C66    O230      0.54422      .   S
    C26    O230      0.54422      .   S
    C67    O231      0.54418      .   S
    C27    O231      0.54418      .   S
    C94    O232      0.67438      .   S
    C84    O232      0.67438      .   S
    C94    O233      1.18081      .   S
    C6     O233      1.18081      .   S
    C95    O234      0.67435      .   S
    C85    O234      0.67435      .   S
    C95    O235      1.17460      .   S
    C7     O235      1.17460      .   S
    C104   O236      0.63350      .   S
    C74    O236      0.63350      .   S
    C104   O237      1.13498  1_545   S
    C6     O237      1.13498      .   S
    C105   O238      0.63275      .   S
    C75    O238      0.63275      .   S
    C105   O239      1.14243  1_545   S
    C7     O239      1.14243      .   S
    C85    O240      0.54535      .   S
    C39    O240      0.54535      .   S
    C84    O241      0.54531      .   S
    C38    O241      0.54531      .   S
    C75    O242      0.63846      .   S
    C107   O242      0.63846      .   S
    C74    O243      0.63763      .   S
    C106   O243      0.63763      .   S
