# CIF file generated by openbabel 2.4.90, see http://openbabel.sf.net
data_I
_chemical_name_common ''
_cell_length_a 19.597
_cell_length_b 14.255
_cell_length_c 14.261
_cell_angle_alpha 102.692
_cell_angle_beta 103.349
_cell_angle_gamma 103.22
_space_group_name_H-M_alt 'P 1'
_space_group_name_Hall 'P 1'
loop_
    _symmetry_equiv_pos_as_xyz
    x,y,z
loop_
    _atom_site_label
    _atom_site_type_symbol
    _atom_site_fract_x
    _atom_site_fract_y
    _atom_site_fract_z
    _atom_site_occupancy
    N0      N    0.87775   0.27755   0.19565   1.000
    N1      N    0.74999   0.99990   0.49998   1.000
    N2      N    0.24999   0.99993   0.49999   1.000
    N3      N    0.49999   0.49999   0.99991   1.000
    N4      N    0.99999   0.49999   0.99992   1.000
    N5      N    0.12768   0.19551   0.27751   1.000
    N6      N    0.62769   0.19551   0.27752   1.000
    N7      N    0.37775   0.27755   0.19564   1.000
    N8      N    0.62225   0.72247   0.80435   1.000
    N9      N    0.12225   0.72246   0.80436   1.000
    N10     N    0.37231   0.80450   0.72248   1.000
    N11     N    0.87232   0.80450   0.72248   1.000
    Zr12    Zr   0.87496   0.78183   0.21816   1.000
    O13     O    0.74824   0.68763   0.14176   1.000
    O14     O    0.00171   0.85815   0.31236   1.000
    Zr15    Zr   0.37496   0.78183   0.21816   1.000
    O16     O    0.24823   0.68763   0.14176   1.000
    O17     O    0.50170   0.85814   0.31236   1.000
    Zr18    Zr   0.62502   0.21816   0.78184   1.000
    O19     O    0.49827   0.14181   0.68763   1.000
    O20     O    0.75174   0.31236   0.85819   1.000
    Zr21    Zr   0.12501   0.21816   0.78185   1.000
    O22     O    0.99827   0.14180   0.68763   1.000
    O23     O    0.25174   0.31236   0.85819   1.000
    O24     O    0.87155   0.78829   0.36092   1.000
    O25     O    0.87759   0.78784   0.07781   1.000
    O26     O    0.87237   0.92220   0.21224   1.000
    O27     O    0.87842   0.63908   0.21173   1.000
    O28     O    0.62240   0.21217   0.92219   1.000
    O29     O    0.62843   0.21171   0.63908   1.000
    O30     O    0.62156   0.36092   0.78826   1.000
    O31     O    0.62762   0.07780   0.78775   1.000
    O32     O    0.37237   0.92220   0.21224   1.000
    O33     O    0.37842   0.63908   0.21173   1.000
    O34     O    0.12842   0.21171   0.63908   1.000
    O35     O    0.12239   0.21216   0.92219   1.000
    O36     O    0.12156   0.36092   0.78828   1.000
    O37     O    0.12761   0.07780   0.78776   1.000
    O38     O    0.37758   0.78783   0.07781   1.000
    O39     O    0.37155   0.78829   0.36092   1.000
loop_
    _geom_bond_atom_site_label_1
    _geom_bond_atom_site_label_2
    _geom_bond_distance
    _geom_bond_site_symmetry_2
    _ccdc_geom_bond_type
    Zr12   O13       2.39589      .   S
    N3     O13       4.69466  1_556   S
    Zr12   O14       2.39554  1_655   S
    N2     O14       4.69392      .   S
    Zr15   O16       2.39586      .   S
    N4     O16       4.69458  1_656   S
    Zr15   O17       2.39558      .   S
    N1     O17       4.69399      .   S
    Zr18   O19       2.39559      .   S
    N2     O19       4.69403  1_565   S
    Zr18   O20       2.39583      .   S
    N4     O20       4.69454      .   S
    Zr21   O22       2.39557  1_455   S
    N1     O22       4.69397  1_565   S
    Zr21   O23       2.39587      .   S
    N3     O23       4.69460      .   S
    N11    O24       5.10681      .   S
    Zr12   O24       2.03503      .   S
    N11    O25       5.10326  1_556   S
    Zr12   O25       2.03390      .   S
    Zr12   O26       2.03273      .   S
    N0     O26       5.10102  1_545   S
    Zr12   O27       2.03422      .   S
    N0     O27       5.10500      .   S
    Zr18   O28       2.03391      .   S
    N6     O28       5.10330  1_554   S
    Zr18   O29       2.03500      .   S
    N6     O29       5.10678      .   S
    Zr18   O30       2.03426      .   S
    N8     O30       5.10512      .   S
    Zr18   O31       2.03269      .   S
    N8     O31       5.10090  1_565   S
    N7     O32       5.10101  1_545   S
    Zr15   O32       2.03273      .   S
    N7     O33       5.10501      .   S
    Zr15   O33       2.03423      .   S
    N5     O34       5.10701      .   S
    Zr21   O34       2.03510      .   S
    N5     O35       5.10306  1_554   S
    Zr21   O35       2.03383      .   S
    N9     O36       5.10507      .   S
    Zr21   O36       2.03424      .   S
    N9     O37       5.10094  1_565   S
    Zr21   O37       2.03270      .   S
    N10    O38       5.10323  1_556   S
    Zr15   O38       2.03388      .   S
    N10    O39       5.10685      .   S
    Zr15   O39       2.03504      .   S
