# CIF file generated by openbabel 2.4.90, see http://openbabel.sf.net
data_I
_chemical_name_common ''
_cell_length_a 19.597
_cell_length_b 14.255
_cell_length_c 14.261
_cell_angle_alpha 102.692
_cell_angle_beta 103.349
_cell_angle_gamma 103.22
_space_group_name_H-M_alt 'P 1'
_space_group_name_Hall 'P 1'
loop_
    _symmetry_equiv_pos_as_xyz
    x,y,z
loop_
    _atom_site_label
    _atom_site_type_symbol
    _atom_site_fract_x
    _atom_site_fract_y
    _atom_site_fract_z
    _atom_site_occupancy
    N0      N    0.87775   0.27755   0.19565   1.000
    N1      N    0.74999   0.99990   0.49998   1.000
    N2      N    0.24999   0.99993   0.49999   1.000
    N3      N    0.49999   0.49999   0.99991   1.000
    N4      N    0.99999   0.49999   0.99992   1.000
    N5      N    0.12768   0.19551   0.27751   1.000
    N6      N    0.62769   0.19551   0.27752   1.000
    N7      N    0.37775   0.27755   0.19564   1.000
    N8      N    0.62225   0.72247   0.80435   1.000
    N9      N    0.12225   0.72246   0.80436   1.000
    N10     N    0.37231   0.80450   0.72248   1.000
    N11     N    0.87232   0.80450   0.72248   1.000
    Zr12    Zr   0.87496   0.78183   0.21816   1.000
    O13     O    0.85548   0.91039   0.19894   1.000
    O14     O    0.86104   0.62759   0.20172   1.000
    O15     O    0.86070   0.77455   0.06597   1.000
    O16     O    0.74824   0.68763   0.14176   1.000
    O17     O    0.85416   0.77829   0.34941   1.000
    O18     O    0.88895   0.79829   0.37243   1.000
    O19     O    0.89448   0.80112   0.08964   1.000
    O20     O    0.89581   0.65058   0.22174   1.000
    O21     O    0.88926   0.93401   0.22554   1.000
    O22     O    0.00171   0.85815   0.31236   1.000
    Zr23    Zr   0.37496   0.78183   0.21816   1.000
    O24     O    0.35416   0.77829   0.34941   1.000
    O25     O    0.24823   0.68763   0.14176   1.000
    O26     O    0.36069   0.77454   0.06597   1.000
    O27     O    0.35547   0.91038   0.19893   1.000
    O28     O    0.36103   0.62758   0.20171   1.000
    O29     O    0.39447   0.80112   0.08964   1.000
    O30     O    0.38926   0.93401   0.22554   1.000
    O31     O    0.39581   0.65057   0.22174   1.000
    O32     O    0.50170   0.85814   0.31236   1.000
    O33     O    0.38894   0.79828   0.37243   1.000
    Zr34    Zr   0.62502   0.21816   0.78184   1.000
    O35     O    0.61104   0.20172   0.62757   1.000
    O36     O    0.60551   0.19888   0.91035   1.000
    O37     O    0.60417   0.34943   0.77825   1.000
    O38     O    0.49827   0.14181   0.68763   1.000
    O39     O    0.61072   0.06599   0.77444   1.000
    O40     O    0.63895   0.37242   0.79828   1.000
    O41     O    0.64582   0.22171   0.65058   1.000
    O42     O    0.63929   0.22546   0.93402   1.000
    O43     O    0.64451   0.08962   0.80106   1.000
    O44     O    0.75174   0.31236   0.85819   1.000
    Zr45    Zr   0.12501   0.21816   0.78185   1.000
    O46     O    0.11103   0.20171   0.62757   1.000
    O47     O    0.10550   0.19888   0.91036   1.000
    O48     O    0.10417   0.34942   0.77826   1.000
    O49     O    0.99827   0.14180   0.68763   1.000
    O50     O    0.11072   0.06599   0.77446   1.000
    O51     O    0.14582   0.22170   0.65059   1.000
    O52     O    0.13929   0.22545   0.93403   1.000
    O53     O    0.25174   0.31236   0.85819   1.000
    O54     O    0.13894   0.37241   0.79829   1.000
    O55     O    0.14450   0.08961   0.80107   1.000
loop_
    _geom_bond_atom_site_label_1
    _geom_bond_atom_site_label_2
    _geom_bond_distance
    _geom_bond_site_symmetry_2
    _ccdc_geom_bond_type
    Zr12   O13       2.01778      .   S
    N0     O13       5.16323  1_545   S
    Zr12   O14       2.10561      .   S
    N0     O14       5.05805      .   S
    Zr12   O15       2.09918      .   S
    N11    O15       5.06158  1_556   S
    Zr12   O16       2.39589      .   S
    N3     O16       4.69466  1_556   S
    Zr12   O17       2.01416      .   S
    N11    O17       5.17341      .   S
    Zr12   O18       2.10619      .   S
    N11    O18       5.06014      .   S
    Zr12   O19       2.01935      .   S
    N11    O19       5.16506  1_556   S
    Zr12   O20       2.01312      .   S
    N0     O20       5.17187      .   S
    Zr12   O21       2.09843      .   S
    N0     O21       5.05891  1_545   S
    Zr12   O22       2.39554  1_655   S
    N2     O22       4.69392      .   S
    Zr23   O24       2.01416      .   S
    N10    O24       5.17345      .   S
    Zr23   O25       2.39586      .   S
    N4     O25       4.69458  1_656   S
    Zr23   O26       2.09915      .   S
    N10    O26       5.06155  1_556   S
    Zr23   O27       2.01776      .   S
    N7     O27       5.16323  1_545   S
    Zr23   O28       2.10561      .   S
    N7     O28       5.05806      .   S
    Zr23   O29       2.01933      .   S
    N10    O29       5.16502  1_556   S
    Zr23   O30       2.09843      .   S
    N7     O30       5.05891  1_545   S
    Zr23   O31       2.01312      .   S
    N7     O31       5.17189      .   S
    Zr23   O32       2.39558      .   S
    N1     O32       4.69399      .   S
    Zr23   O33       2.10620      .   S
    N10    O33       5.06018      .   S
    Zr34   O35       2.10613      .   S
    N6     O35       5.06014      .   S
    Zr34   O36       2.01936      .   S
    N6     O36       5.16509  1_554   S
    Zr34   O37       2.01314      .   S
    N8     O37       5.17202      .   S
    Zr34   O38       2.39559      .   S
    N2     O38       4.69403  1_565   S
    Zr34   O39       2.09838      .   S
    N8     O39       5.05879  1_565   S
    Zr34   O40       2.10567      .   S
    N8     O40       5.05815      .   S
    Zr34   O41       2.01415      .   S
    N6     O41       5.17335      .   S
    Zr34   O42       2.09919      .   S
    N6     O42       5.06162  1_554   S
    Zr34   O43       2.01773      .   S
    N8     O43       5.16311  1_565   S
    Zr34   O44       2.39583      .   S
    N4     O44       4.69454      .   S
    Zr45   O46       2.10623      .   S
    N5     O46       5.06037      .   S
    Zr45   O47       2.01927      .   S
    N5     O47       5.16487  1_554   S
    Zr45   O48       2.01313      .   S
    N9     O48       5.17197      .   S
    Zr45   O49       2.39557  1_455   S
    N1     O49       4.69397  1_565   S
    Zr45   O50       2.09839      .   S
    N9     O50       5.05885  1_565   S
    Zr45   O51       2.01425      .   S
    N5     O51       5.17359      .   S
    Zr45   O52       2.09912      .   S
    N5     O52       5.06136  1_554   S
    Zr45   O53       2.39587      .   S
    N3     O53       4.69460      .   S
    Zr45   O54       2.10564      .   S
    N9     O54       5.05811      .   S
    Zr45   O55       2.01775      .   S
    N9     O55       5.16315  1_565   S
