# CIF file generated by openbabel 2.4.90, see http://openbabel.sf.net
data_I
_chemical_name_common ''
_cell_length_a 13.083
_cell_length_b 18.27
_cell_length_c 18.307
_cell_angle_alpha 89.723
_cell_angle_beta 89.881
_cell_angle_gamma 90.08
_space_group_name_H-M_alt 'P 1'
_space_group_name_Hall 'P 1'
loop_
    _symmetry_equiv_pos_as_xyz
    x,y,z
loop_
    _atom_site_label
    _atom_site_type_symbol
    _atom_site_fract_x
    _atom_site_fract_y
    _atom_site_fract_z
    _atom_site_occupancy
    Ba0     Ba   0.66288   0.84692   0.39090   1.000
    Ba1     Ba   0.41593   0.89290   0.65109   1.000
    Ba2     Ba   0.91511   0.10708   0.34878   1.000
    Ba3     Ba   0.08915   0.34810   0.10857   1.000
    Ba4     Ba   0.58701   0.65291   0.89270   1.000
    Ba5     Ba   0.83734   0.60796   0.15146   1.000
    Ba6     Ba   0.33999   0.39141   0.84770   1.000
    Cd7     Cd   0.25240   0.34752   0.65294   1.000
    Cd8     Cd   0.75017   0.65275   0.34603   1.000
    Cd9     Cd   0.50112   0.84722   0.84605   1.000
    Cd10    Cd   0.00075   0.15408   0.15392   1.000
    Ba11    Ba   0.16498   0.15269   0.60788   1.000
    C12     C    0.27200   0.31501   0.50478   1.000
    C13     C    0.14023   0.21841   0.26836   1.000
    C14     C    0.76985   0.68503   0.49425   1.000
    C15     C    0.63904   0.78133   0.73138   1.000
    C16     C    0.52317   0.99555   0.81279   1.000
    C17     C    0.39183   0.23380   0.71668   1.000
    C18     C    0.02108   0.00530   0.18633   1.000
    C19     C    0.88962   0.76638   0.28154   1.000
    C20     C    0.98144   0.18773   0.00549   1.000
    C21     C    0.11429   0.28166   0.76674   1.000
    C22     C    0.47944   0.81495   0.99425   1.000
    C23     C    0.61216   0.71853   0.23141   1.000
    C24     C    0.73019   0.50418   0.31355   1.000
    C25     C    0.86188   0.26635   0.21842   1.000
    C26     C    0.23184   0.49598   0.68723   1.000
    C27     C    0.36170   0.73394   0.78217   1.000
    O28     O    0.20479   0.27484   0.53728   1.000
    O29     O    0.32865   0.35941   0.53914   1.000
    O30     O    0.08755   0.17178   0.30292   1.000
    O31     O    0.12911   0.23118   0.19924   1.000
    O32     O    0.70253   0.72517   0.46221   1.000
    O33     O    0.82644   0.64086   0.45951   1.000
    O34     O    0.58679   0.82813   0.69700   1.000
    O35     O    0.62789   0.76872   0.80055   1.000
    O36     O    0.45750   0.96316   0.77182   1.000
    O37     O    0.57798   0.96086   0.85831   1.000
    O38     O    0.33762   0.19978   0.67106   1.000
    O39     O    0.38218   0.30315   0.72889   1.000
    O40     O    0.95569   0.03723   0.22791   1.000
    O41     O    0.07582   0.04040   0.14082   1.000
    O42     O    0.83580   0.79994   0.32787   1.000
    O43     O    0.87968   0.69714   0.26870   1.000
    O44     O    0.04874   0.22788   0.03724   1.000
    O45     O    0.92450   0.14361   0.04058   1.000
    O46     O    0.16854   0.32783   0.80016   1.000
    O47     O    0.12404   0.26902   0.69762   1.000
    O48     O    0.54673   0.77490   0.96216   1.000
    O49     O    0.42284   0.85922   0.95944   1.000
    O50     O    0.66576   0.67257   0.19721   1.000
    O51     O    0.62233   0.73072   0.30058   1.000
    O52     O    0.79557   0.53692   0.27212   1.000
    O53     O    0.67517   0.53846   0.35906   1.000
    O54     O    0.91575   0.30018   0.17193   1.000
    O55     O    0.87174   0.19704   0.23145   1.000
    O56     O    0.29815   0.46405   0.72812   1.000
    O57     O    0.17708   0.46115   0.64199   1.000
    O58     O    0.41431   0.69994   0.82902   1.000
    O59     O    0.37302   0.80307   0.76868   1.000
loop_
    _geom_bond_atom_site_label_1
    _geom_bond_atom_site_label_2
    _geom_bond_distance
    _geom_bond_site_symmetry_2
    _ccdc_geom_bond_type
    C20    O44       1.28676  1_655   S
    C20    O45       1.26827      .   S
    O44    Ba3       2.61469      .   S
    O45    Cd10      2.31274  1_655   S
    Ba3    O54       2.68937  1_455   S
    O41    Cd10      2.31198      .   S
    O41    C18       1.26862      .   S
    Ba5    O50       2.67263      .   S
    Ba5    O52       2.61305      .   S
    Cd10   O31       2.34595      .   S
    Cd10   O55       2.34172  1_455   S
    O54    C25       1.26264      .   S
    C18    O40       1.28634  1_455   S
    O50    C23       1.26236      .   S
    O31    C13       1.29413      .   S
    C25    O55       1.29418      .   S
    O40    Ba2       2.61363      .   S
    C23    O51       1.29388      .   S
    C13    O30       1.26186      .   S
    O43    C19       1.29412      .   S
    O43    Cd8       2.34692      .   S
    O52    C24       1.28691      .   S
    C19    O42       1.26290      .   S
    O51    Cd8       2.34948      .   S
    O30    Ba2       2.67706  1_455   S
    C24    O53       1.26825      .   S
    O42    Ba0       2.68148      .   S
    Cd8    O53       2.31683      .   S
    Cd8    O33       2.31593      .   S
    Ba0    O32       2.62665      .   S
    O33    C14       1.26835      .   S
    O32    C14       1.28739      .   S
    C12    O28       1.28741      .   S
    C12    O29       1.26824      .   S
    O28    Ba11      2.62450      .   S
    O29    Cd7       2.31713      .   S
    Ba11   O38       2.68218      .   S
    O57    Cd7       2.30718      .   S
    O57    C26       1.26900      .   S
    Ba1    O34       2.66630      .   S
    Ba1    O36       2.61898      .   S
    Cd7    O47       2.35004      .   S
    Cd7    O39       2.34011      .   S
    O38    C17       1.26222      .   S
    C26    O56       1.28572      .   S
    O34    C15       1.26206      .   S
    O47    C21       1.29348      .   S
    C17    O39       1.29400      .   S
    O56    Ba6       2.61387      .   S
    C15    O35       1.29391      .   S
    C21    O46       1.26283      .   S
    O59    C27       1.29392      .   S
    O59    Cd9       2.34155      .   S
    O36    C16       1.28701      .   S
    C27    O58       1.26246      .   S
    O46    Ba6       2.67369      .   S
    O35    Cd9       2.34818      .   S
    C16    O37       1.26833      .   S
    O58    Ba4       2.68490      .   S
    Cd9    O37       2.31770      .   S
    Cd9    O49       2.32425      .   S
    Ba4    O48       2.62488      .   S
    O49    C22       1.26770      .   S
    O48    C22       1.28816      .   S
    O31    Ba3       2.75036      .   S
    O35    Ba4       2.75087      .   S
    O39    Ba6       2.76895      .   S
    O43    Ba5       2.75763      .   S
    O47    Ba11      2.74512      .   S
    O51    Ba0       2.74903      .   S
    O55    Ba2       2.75866      .   S
    O59    Ba1       2.75708      .   S
