# CIF file generated by openbabel 2.4.90, see http://openbabel.sf.net
data_I
_chemical_name_common ''
_cell_length_a 13.083
_cell_length_b 18.27
_cell_length_c 18.307
_cell_angle_alpha 89.723
_cell_angle_beta 89.881
_cell_angle_gamma 90.08
_space_group_name_H-M_alt 'P 1'
_space_group_name_Hall 'P 1'
loop_
    _symmetry_equiv_pos_as_xyz
    x,y,z
loop_
    _atom_site_label
    _atom_site_type_symbol
    _atom_site_fract_x
    _atom_site_fract_y
    _atom_site_fract_z
    _atom_site_occupancy
    C0      C    0.27200   0.31501   0.50478   1.000
    C1      C    0.14023   0.21841   0.26836   1.000
    C2      C    0.76985   0.68503   0.49425   1.000
    C3      C    0.63904   0.78133   0.73138   1.000
    C4      C    0.52317   0.99555   0.81279   1.000
    C5      C    0.39183   0.23380   0.71668   1.000
    C6      C    0.02108   0.00530   0.18633   1.000
    C7      C    0.88962   0.76638   0.28154   1.000
    C8      C    0.98144   0.18773   0.00549   1.000
    C9      C    0.11429   0.28166   0.76674   1.000
    C10     C    0.47944   0.81495   0.99425   1.000
    C11     C    0.61216   0.71853   0.23141   1.000
    C12     C    0.73019   0.50418   0.31355   1.000
    C13     C    0.86188   0.26635   0.21842   1.000
    C14     C    0.23184   0.49598   0.68723   1.000
    C15     C    0.36170   0.73394   0.78217   1.000
