# CIF file generated by openbabel 2.4.90, see http://openbabel.sf.net
data_I
_chemical_name_common ''
_cell_length_a 13.083
_cell_length_b 18.27
_cell_length_c 18.307
_cell_angle_alpha 89.723
_cell_angle_beta 89.881
_cell_angle_gamma 90.08
_space_group_name_H-M_alt 'P 1'
_space_group_name_Hall 'P 1'
loop_
    _symmetry_equiv_pos_as_xyz
    x,y,z
loop_
    _atom_site_label
    _atom_site_type_symbol
    _atom_site_fract_x
    _atom_site_fract_y
    _atom_site_fract_z
    _atom_site_occupancy
    N0      N    0.70014   0.33994   0.31143   1.000
    N1      N    0.94385   0.13051   0.52618   1.000
    N2      N    0.05137   0.84107   0.18831   1.000
    N3      N    0.80027   0.68743   0.65815   1.000
    N4      N    0.44995   0.81198   0.15770   1.000
    N5      N    0.95172   0.18925   0.84152   1.000
    N6      N    0.30206   0.31234   0.34079   1.000
    N7      N    0.05853   0.52537   0.13236   1.000
    N8      N    0.55351   0.15985   0.80979   1.000
    N9      N    0.80886   0.63349   0.97003   1.000
    N10     N    0.31112   0.36761   0.02551   1.000
    N11     N    0.19988   0.66001   0.68965   1.000
    N12     N    0.69287   0.02505   0.36763   1.000
    N13     N    0.44227   0.86864   0.47354   1.000
    N14     N    0.56021   0.47487   0.86945   1.000
    N15     N    0.19475   0.97022   0.63240   1.000
    Zr16    Zr   0.75037   0.67490   0.32376   1.000
    O17     O    0.63094   0.72558   0.25411   1.000
    O18     O    0.87017   0.74447   0.27387   1.000
    O19     O    0.76892   0.68121   0.46013   1.000
    O20     O    0.73159   0.53831   0.31749   1.000
    Zr21    Zr   0.00124   0.17576   0.17613   1.000
    O22     O    0.01993   0.03930   0.18234   1.000
    O23     O    0.88138   0.24455   0.22598   1.000
    O24     O    0.98275   0.18273   0.03966   1.000
    O25     O    0.12095   0.22610   0.24535   1.000
    Zr26    Zr   0.50096   0.82512   0.82383   1.000
    O27     O    0.38112   0.75596   0.77443   1.000
    O28     O    0.48167   0.81861   0.96006   1.000
    O29     O    0.62000   0.77420   0.75425   1.000
    O30     O    0.52087   0.96158   0.81686   1.000
    Zr31    Zr   0.25256   0.32515   0.67521   1.000
    O32     O    0.37237   0.25588   0.72468   1.000
    O33     O    0.13300   0.27487   0.74483   1.000
    O34     O    0.27098   0.31875   0.53885   1.000
    O35     O    0.23287   0.46173   0.68248   1.000
    O36     O    0.13137   0.23113   0.61269   1.000
    O37     O    0.28592   0.35008   0.82383   1.000
    O38     O    0.37330   0.38782   0.76909   1.000
    O39     O    0.21945   0.17422   0.65002   1.000
    O40     O    0.87123   0.61220   0.23090   1.000
    O41     O    0.03420   0.32410   0.15054   1.000
    O42     O    0.96856   0.14937   0.32470   1.000
    O43     O    0.78363   0.65017   0.17332   1.000
    O44     O    0.71737   0.82340   0.34932   1.000
    O45     O    0.62940   0.76847   0.38651   1.000
    O46     O    0.62162   0.73224   0.88516   1.000
    O47     O    0.88041   0.11241   0.26907   1.000
    O48     O    0.12286   0.26880   0.11297   1.000
    O49     O    0.46797   0.85070   0.67517   1.000
    O50     O    0.53438   0.67654   0.85038   1.000
    O51     O    0.38108   0.88589   0.73090   1.000
loop_
    _geom_bond_atom_site_label_1
    _geom_bond_atom_site_label_2
    _geom_bond_distance
    _geom_bond_site_symmetry_2
    _ccdc_geom_bond_type
    Zr16   O17       2.21931      .   S
    N4     O17       3.34887      .   S
    Zr16   O18       2.20989      .   S
    N2     O18       3.33676  1_455   S
    Zr16   O19       2.51192      .   S
    N3     O19       3.65151      .   S
    Zr16   O20       2.51040      .   S
    N0     O20       3.64930      .   S
    Zr21   O22       2.50745      .   S
    N2     O22       3.64664  1_565   S
    Zr21   O23       2.20950  1_455   S
    N0     O23       3.33609      .   S
    Zr21   O24       2.51319  1_455   S
    N5     O24       3.65225  1_556   S
    Zr21   O25       2.21812      .   S
    N6     O25       3.34415      .   S
    Zr26   O27       2.20998      .   S
    N11    O27       3.33683      .   S
    Zr26   O28       2.50837      .   S
    N4     O28       3.64251  1_554   S
    Zr26   O29       2.21823      .   S
    N3     O29       3.34523      .   S
    Zr26   O30       2.50894      .   S
    N8     O30       3.64856  1_545   S
    Zr31   O32       2.20890      .   S
    N8     O32       3.33501      .   S
    Zr31   O33       2.21155      .   S
    N5     O33       3.33926  1_655   S
    Zr31   O34       2.51079      .   S
    N6     O34       3.65033      .   S
    Zr31   O35       2.51294      .   S
    N11    O35       3.65186      .   S
    Zr31   O36       2.60644      .   S
    N1     O36       3.45521  1_655   S
    Zr31   O37       2.79586      .   S
    N10    O37       3.72286  1_554   S
    Zr31   O38       2.60484      .   S
    N14    O38       3.45272      .   S
    Zr31   O39       2.83099      .   S
    N15    O39       3.75602  1_565   S
    N7     O40       3.43462  1_455   S
    Zr16   O40       2.59136      .   S
    N7     O41       3.70374      .   S
    Zr21   O41       2.78108      .   S
    N1     O42       3.71627      .   S
    Zr21   O42       2.79186  1_455   S
    Zr16   O43       2.82599      .   S
    N9     O43       3.74939  1_556   S
    Zr16   O44       2.78936      .   S
    N12    O44       3.71524  1_545   S
    Zr16   O45       2.60105      .   S
    N13    O45       3.45052      .   S
    N9     O46       3.41634      .   S
    Zr26   O46       2.57453      .   S
    Zr21   O47       2.58805  1_455   S
    N12    O47       3.43014      .   S
    Zr21   O48       2.59309      .   S
    N10    O48       3.43974      .   S
    Zr26   O49       2.79363      .   S
    N13    O49       3.72018      .   S
    Zr26   O50       2.79068      .   S
    N14    O50       3.71518      .   S
    Zr26   O51       2.56598      .   S
    N15    O51       3.40151      .   S
