# CIF file generated by openbabel 2.4.90, see http://openbabel.sf.net
data_I
_chemical_name_common ''
_cell_length_a 13.083
_cell_length_b 18.27
_cell_length_c 18.307
_cell_angle_alpha 89.723
_cell_angle_beta 89.881
_cell_angle_gamma 90.08
_space_group_name_H-M_alt 'P 1'
_space_group_name_Hall 'P 1'
loop_
    _symmetry_equiv_pos_as_xyz
    x,y,z
loop_
    _atom_site_label
    _atom_site_type_symbol
    _atom_site_fract_x
    _atom_site_fract_y
    _atom_site_fract_z
    _atom_site_occupancy
    N0      N    0.70014   0.33994   0.31143   1.000
    N1      N    0.94385   0.13051   0.52618   1.000
    N2      N    0.05137   0.84107   0.18831   1.000
    N3      N    0.80027   0.68743   0.65815   1.000
    N4      N    0.44995   0.81198   0.15770   1.000
    N5      N    0.95172   0.18925   0.84152   1.000
    N6      N    0.30206   0.31234   0.34079   1.000
    N7      N    0.05853   0.52537   0.13236   1.000
    N8      N    0.55351   0.15985   0.80979   1.000
    N9      N    0.80886   0.63349   0.97003   1.000
    N10     N    0.31112   0.36761   0.02551   1.000
    N11     N    0.19988   0.66001   0.68965   1.000
    N12     N    0.69287   0.02505   0.36763   1.000
    N13     N    0.44227   0.86864   0.47354   1.000
    N14     N    0.56021   0.47487   0.86945   1.000
    N15     N    0.19475   0.97022   0.63240   1.000
    Zr16    Zr   0.75037   0.67490   0.32376   1.000
    O17     O    0.86679   0.60541   0.22990   1.000
    O18     O    0.87567   0.61899   0.23190   1.000
    O19     O    0.77313   0.65035   0.17332   1.000
    O20     O    0.79414   0.64999   0.17332   1.000
    O21     O    0.63094   0.72558   0.25411   1.000
    O22     O    0.87017   0.74447   0.27387   1.000
    O23     O    0.76892   0.68121   0.46013   1.000
    O24     O    0.72788   0.82266   0.34914   1.000
    O25     O    0.63405   0.76947   0.39320   1.000
    O26     O    0.62476   0.76748   0.37981   1.000
    O27     O    0.70687   0.82414   0.34951   1.000
    O28     O    0.73159   0.53831   0.31749   1.000
    Zr29    Zr   0.00124   0.17576   0.17613   1.000
    O30     O    0.97908   0.14958   0.32406   1.000
    O31     O    0.95805   0.14916   0.32533   1.000
    O32     O    0.88484   0.10561   0.27006   1.000
    O33     O    0.87599   0.11921   0.26809   1.000
    O34     O    0.01993   0.03930   0.18234   1.000
    O35     O    0.88138   0.24455   0.22598   1.000
    O36     O    0.98275   0.18273   0.03966   1.000
    O37     O    0.12095   0.22610   0.24535   1.000
    O38     O    0.02370   0.32336   0.15073   1.000
    O39     O    0.04471   0.32485   0.15036   1.000
    O40     O    0.11840   0.26979   0.10621   1.000
    O41     O    0.12733   0.26780   0.11974   1.000
    Zr42    Zr   0.50096   0.82512   0.82383   1.000
    O43     O    0.38112   0.75596   0.77443   1.000
    O44     O    0.61713   0.73108   0.89101   1.000
    O45     O    0.62610   0.73341   0.87931   1.000
    O46     O    0.52387   0.67722   0.85017   1.000
    O47     O    0.54489   0.67586   0.85059   1.000
    O48     O    0.48167   0.81861   0.96006   1.000
    O49     O    0.62000   0.77420   0.75425   1.000
    O50     O    0.52087   0.96158   0.81686   1.000
    O51     O    0.47848   0.85033   0.67576   1.000
    O52     O    0.45747   0.85108   0.67458   1.000
    O53     O    0.38552   0.89173   0.72990   1.000
    O54     O    0.37664   0.88005   0.73191   1.000
    Zr55    Zr   0.25256   0.32515   0.67521   1.000
    O56     O    0.37237   0.25588   0.72468   1.000
    O57     O    0.13300   0.27487   0.74483   1.000
    O58     O    0.27098   0.31875   0.53885   1.000
    O59     O    0.23287   0.46173   0.68248   1.000
    O60     O    0.27541   0.34990   0.82314   1.000
    O61     O    0.29643   0.35025   0.82453   1.000
    O62     O    0.36879   0.39455   0.77024   1.000
    O63     O    0.37782   0.38108   0.76795   1.000
    O64     O    0.20894   0.17422   0.64984   1.000
    O65     O    0.13597   0.22998   0.60599   1.000
    O66     O    0.12678   0.23228   0.61939   1.000
    O67     O    0.22995   0.17422   0.65020   1.000
loop_
    _geom_bond_atom_site_label_1
    _geom_bond_atom_site_label_2
    _geom_bond_distance
    _geom_bond_site_symmetry_2
    _ccdc_geom_bond_type
    Zr16   O17       2.62674      .   S
    N7     O17       3.41140  1_455   S
    Zr16   O18       2.56296      .   S
    N7     O18       3.46320  1_455   S
    Zr16   O19       2.80781      .   S
    N9     O19       3.76400  1_556   S
    Zr16   O20       2.85069      .   S
    N9     O20       3.73979  1_556   S
    Zr16   O21       2.21931      .   S
    N4     O21       3.34887      .   S
    Zr16   O22       2.20989      .   S
    N2     O22       3.33676  1_455   S
    Zr16   O23       2.51192      .   S
    N3     O23       3.65151      .   S
    Zr16   O24       2.75754      .   S
    N12    O24       3.74337  1_545   S
    Zr16   O25       2.63392      .   S
    N13    O25       3.42989      .   S
    Zr16   O26       2.57518      .   S
    N13    O26       3.47653      .   S
    Zr16   O27       2.82759      .   S
    N12    O27       3.69207  1_545   S
    Zr16   O28       2.51040      .   S
    N0     O28       3.64930      .   S
    Zr29   O30       2.76241  1_455   S
    N1     O30       3.74226      .   S
    Zr29   O31       2.82774  1_455   S
    N1     O31       3.69525      .   S
    Zr29   O32       2.62308  1_455   S
    N12    O32       3.40741      .   S
    Zr29   O33       2.56001  1_455   S
    N12    O33       3.45825      .   S
    Zr29   O34       2.50745      .   S
    N2     O34       3.64664  1_565   S
    Zr29   O35       2.20950  1_455   S
    N0     O35       3.33609      .   S
    Zr29   O36       2.51319  1_455   S
    N5     O36       3.65225  1_556   S
    Zr29   O37       2.21812      .   S
    N6     O37       3.34415      .   S
    Zr29   O38       2.74949      .   S
    N7     O38       3.73157      .   S
    Zr29   O39       2.81909      .   S
    N7     O39       3.68090      .   S
    Zr29   O40       2.62735      .   S
    N10    O40       3.41754      .   S
    Zr29   O41       2.56583      .   S
    N10    O41       3.46732      .   S
    Zr42   O43       2.20998      .   S
    N11    O43       3.33683      .   S
    Zr42   O44       2.60182      .   S
    N9     O44       3.40087      .   S
    Zr42   O45       2.55296      .   S
    N9     O45       3.43620      .   S
    Zr42   O46       2.75940      .   S
    N14    O46       3.74305      .   S
    Zr42   O47       2.82835      .   S
    N14    O47       3.69228      .   S
    Zr42   O48       2.50837      .   S
    N4     O48       3.64251  1_554   S
    Zr42   O49       2.21823      .   S
    N3     O49       3.34523      .   S
    Zr42   O50       2.50894      .   S
    N8     O50       3.64856  1_545   S
    Zr42   O51       2.76367      .   S
    N13    O51       3.74669      .   S
    Zr42   O52       2.83001      .   S
    N13    O52       3.69865      .   S
    Zr42   O53       2.59121      .   S
    N15    O53       3.38757      .   S
    Zr42   O54       2.54641      .   S
    N15    O54       3.41980      .   S
    Zr55   O56       2.20890      .   S
    N8     O56       3.33501      .   S
    Zr55   O57       2.21155      .   S
    N5     O57       3.33926  1_655   S
    Zr55   O58       2.51079      .   S
    N6     O58       3.65033      .   S
    Zr55   O59       2.51294      .   S
    N11    O59       3.65186      .   S
    Zr55   O60       2.76448      .   S
    N10    O60       3.75065  1_554   S
    Zr55   O61       2.83362      .   S
    N10    O61       3.70002  1_554   S
    Zr55   O62       2.64070      .   S
    N14    O62       3.42912      .   S
    Zr55   O63       2.57591      .   S
    N14    O63       3.48165      .   S
    Zr55   O64       2.85567      .   S
    N15    O64       3.74657  1_565   S
    Zr55   O65       2.64154      .   S
    N1     O65       3.43272  1_655   S
    Zr55   O66       2.57829      .   S
    N1     O66       3.48305  1_655   S
    Zr55   O67       2.81283      .   S
    N15    O67       3.77047  1_565   S
