# CIF file generated by openbabel 2.4.90, see http://openbabel.sf.net
data_I
_chemical_name_common ''
_cell_length_a 13.083
_cell_length_b 18.27
_cell_length_c 18.307
_cell_angle_alpha 89.723
_cell_angle_beta 89.881
_cell_angle_gamma 90.08
_space_group_name_H-M_alt 'P 1'
_space_group_name_Hall 'P 1'
loop_
    _symmetry_equiv_pos_as_xyz
    x,y,z
loop_
    _atom_site_label
    _atom_site_type_symbol
    _atom_site_fract_x
    _atom_site_fract_y
    _atom_site_fract_z
    _atom_site_occupancy
    Zr0     Zr   0.16498   0.15269   0.60788   1.000
    Zr1     Zr   0.66288   0.84692   0.39090   1.000
    Zr2     Zr   0.41593   0.89290   0.65109   1.000
    Zr3     Zr   0.91511   0.10708   0.34878   1.000
    Zr4     Zr   0.08915   0.34810   0.10857   1.000
    Zr5     Zr   0.58701   0.65291   0.89270   1.000
    Zr6     Zr   0.83734   0.60796   0.15146   1.000
    Zr7     Zr   0.33999   0.39141   0.84770   1.000
    Zr8     Zr   0.25240   0.34752   0.65294   1.000
    Zr9     Zr   0.75017   0.65275   0.34603   1.000
    Zr10    Zr   0.50112   0.84722   0.84605   1.000
    Zr11    Zr   0.00075   0.15408   0.15392   1.000
    Zr12    Zr   0.27200   0.31501   0.50478   1.000
    Zr13    Zr   0.14023   0.21841   0.26836   1.000
    Zr14    Zr   0.76985   0.68503   0.49425   1.000
    Zr15    Zr   0.63904   0.78133   0.73138   1.000
    Zr16    Zr   0.52317   0.99555   0.81279   1.000
    Zr17    Zr   0.39183   0.23380   0.71668   1.000
    Zr18    Zr   0.02108   0.00530   0.18633   1.000
    Zr19    Zr   0.88962   0.76638   0.28154   1.000
    Zr20    Zr   0.98144   0.18773   0.00549   1.000
    Zr21    Zr   0.11429   0.28166   0.76674   1.000
    Zr22    Zr   0.47944   0.81495   0.99425   1.000
    Zr23    Zr   0.61216   0.71853   0.23141   1.000
    Zr24    Zr   0.73019   0.50418   0.31355   1.000
    Zr25    Zr   0.86188   0.26635   0.21842   1.000
    Zr26    Zr   0.23184   0.49598   0.68723   1.000
    Zr27    Zr   0.36170   0.73394   0.78217   1.000
    Zr28    Zr   0.20479   0.27484   0.53728   1.000
    Zr29    Zr   0.32865   0.35941   0.53914   1.000
    Zr30    Zr   0.08755   0.17178   0.30292   1.000
    Zr31    Zr   0.12911   0.23118   0.19924   1.000
    Zr32    Zr   0.70253   0.72517   0.46221   1.000
    Zr33    Zr   0.82644   0.64086   0.45951   1.000
    Zr34    Zr   0.58679   0.82813   0.69700   1.000
    Zr35    Zr   0.62789   0.76872   0.80055   1.000
    Zr36    Zr   0.45750   0.96316   0.77182   1.000
    Zr37    Zr   0.57798   0.96086   0.85831   1.000
    Zr38    Zr   0.33762   0.19978   0.67106   1.000
    Zr39    Zr   0.38218   0.30315   0.72889   1.000
    Zr40    Zr   0.95569   0.03723   0.22791   1.000
    Zr41    Zr   0.07582   0.04040   0.14082   1.000
    Zr42    Zr   0.83580   0.79994   0.32787   1.000
    Zr43    Zr   0.87968   0.69714   0.26870   1.000
    Zr44    Zr   0.04874   0.22788   0.03724   1.000
    Zr45    Zr   0.92450   0.14361   0.04058   1.000
    Zr46    Zr   0.16854   0.32783   0.80016   1.000
    Zr47    Zr   0.12404   0.26902   0.69762   1.000
    Zr48    Zr   0.54673   0.77490   0.96216   1.000
    Zr49    Zr   0.42284   0.85922   0.95944   1.000
    Zr50    Zr   0.66576   0.67257   0.19721   1.000
    Zr51    Zr   0.62233   0.73072   0.30058   1.000
    Zr52    Zr   0.79557   0.53692   0.27212   1.000
    Zr53    Zr   0.67517   0.53846   0.35906   1.000
    Zr54    Zr   0.91575   0.30018   0.17193   1.000
    Zr55    Zr   0.87174   0.19704   0.23145   1.000
    Zr56    Zr   0.29815   0.46405   0.72812   1.000
    Zr57    Zr   0.17708   0.46115   0.64199   1.000
    Zr58    Zr   0.41431   0.69994   0.82902   1.000
    Zr59    Zr   0.37302   0.80307   0.76868   1.000
    O60     O    0.01509   0.20781   0.02136   1.000
    O61     O    0.95297   0.16567   0.02303   1.000
    O62     O    0.06895   0.28799   0.07290   1.000
    O63     O    0.96263   0.14885   0.09725   1.000
    O64     O    0.00245   0.32414   0.14025   1.000
    O65     O    0.03828   0.09724   0.14737   1.000
    O66     O    0.04845   0.02285   0.16357   1.000
    O67     O    0.75155   0.64027   0.17433   1.000
    O68     O    0.81645   0.57244   0.21179   1.000
    O69     O    0.06493   0.19263   0.17658   1.000
    O70     O    0.93624   0.17556   0.19268   1.000
    O71     O    0.88881   0.28327   0.19517   1.000
    O72     O    0.98838   0.02127   0.20712   1.000
    O73     O    0.63896   0.69555   0.21431   1.000
    O74     O    0.13467   0.22480   0.23380   1.000
    O75     O    0.86681   0.23170   0.22493   1.000
    O76     O    0.93540   0.07216   0.28834   1.000
    O77     O    0.61725   0.72463   0.26600   1.000
    O78     O    0.11389   0.19510   0.28564   1.000
    O79     O    0.88465   0.73176   0.27512   1.000
    O80     O    0.81493   0.67495   0.30736   1.000
    O81     O    0.76288   0.52055   0.29283   1.000
    O82     O    0.86271   0.78316   0.30470   1.000
    O83     O    0.68625   0.69173   0.32330   1.000
    O84     O    0.00133   0.13943   0.32585   1.000
    O85     O    0.70268   0.52132   0.33630   1.000
    O86     O    0.74934   0.82343   0.35938   1.000
    O87     O    0.71267   0.59561   0.35254   1.000
    O88     O    0.78830   0.64680   0.40277   1.000
    O89     O    0.68270   0.78605   0.42656   1.000
    O90     O    0.79814   0.66295   0.47688   1.000
    O91     O    0.73619   0.70510   0.47823   1.000
    O92     O    0.23840   0.29492   0.52103   1.000
    O93     O    0.30033   0.33721   0.52196   1.000
    O94     O    0.18489   0.21377   0.57258   1.000
    O95     O    0.29053   0.35347   0.59604   1.000
    O96     O    0.25130   0.17624   0.63947   1.000
    O97     O    0.21474   0.40434   0.64746   1.000
    O98     O    0.20446   0.47856   0.66461   1.000
    O99     O    0.50136   0.86052   0.67404   1.000
    O100    O    0.43672   0.92803   0.71145   1.000
    O101    O    0.18822   0.30827   0.67528   1.000
    O102    O    0.31729   0.32534   0.69091   1.000
    O103    O    0.36472   0.21679   0.69387   1.000
    O104    O    0.26499   0.48001   0.70767   1.000
    O105    O    0.61292   0.80473   0.71419   1.000
    O106    O    0.11917   0.27534   0.73218   1.000
    O107    O    0.38701   0.26848   0.72279   1.000
    O108    O    0.31907   0.42773   0.78791   1.000
    O109    O    0.63347   0.77503   0.76596   1.000
    O110    O    0.14142   0.30475   0.78345   1.000
    O111    O    0.36736   0.76850   0.77543   1.000
    O112    O    0.43707   0.82514   0.80736   1.000
    O113    O    0.49034   0.97935   0.79230   1.000
    O114    O    0.38800   0.71694   0.80559   1.000
    O115    O    0.25426   0.35962   0.82393   1.000
    O116    O    0.56450   0.80797   0.82330   1.000
    O117    O    0.55057   0.97820   0.83555   1.000
    O118    O    0.50066   0.67642   0.86086   1.000
    O119    O    0.53955   0.90404   0.85218   1.000
    O120    O    0.46198   0.85322   0.90274   1.000
    O121    O    0.56687   0.71391   0.92743   1.000
    O122    O    0.45114   0.83708   0.97684   1.000
    O123    O    0.51308   0.79493   0.97820   1.000
    O124    O    0.10913   0.28964   0.15390   1.000
    O125    O    0.60745   0.71082   0.84663   1.000
    O126    O    0.36108   0.34728   0.78830   1.000
    O127    O    0.85851   0.65255   0.21008   1.000
    O128    O    0.14451   0.21085   0.65275   1.000
    O129    O    0.64261   0.78882   0.34574   1.000
    O130    O    0.89343   0.15206   0.29011   1.000
    O131    O    0.39447   0.84798   0.70988   1.000
    N132    N    0.70014   0.33994   0.31143   1.000
    O133    O    0.76152   0.31334   0.27583   1.000
    O134    O    0.71282   0.40173   0.31122   1.000
    N135    N    0.94385   0.13051   0.52618   1.000
    O136    O    0.00100   0.13940   0.56357   1.000
    O137    O    0.01938   0.13481   0.53677   1.000
    O138    O    0.95691   0.12341   0.47200   1.000
    O139    O    0.91487   0.12256   0.47453   1.000
    N140    N    0.05137   0.84107   0.18831   1.000
    O141    O    0.98998   0.81403   0.22398   1.000
    O142    O    0.03862   0.90284   0.18856   1.000
    N143    N    0.80027   0.68743   0.65815   1.000
    O144    O    0.73904   0.72328   0.68468   1.000
    O145    O    0.78748   0.68751   0.59649   1.000
    N146    N    0.44995   0.81198   0.15770   1.000
    O147    O    0.46239   0.81211   0.09628   1.000
    O148    O    0.51152   0.77627   0.18446   1.000
    N149    N    0.95172   0.18925   0.84152   1.000
    O150    O    0.01345   0.22459   0.81444   1.000
    O151    O    0.96425   0.18970   0.90319   1.000
    N152    N    0.30206   0.31234   0.34079   1.000
    O153    O    0.28941   0.31235   0.40249   1.000
    O154    O    0.24066   0.27643   0.31457   1.000
    N155    N    0.05853   0.52537   0.13236   1.000
    O156    O    0.04616   0.47096   0.12532   1.000
    O157    O    0.98321   0.53592   0.13604   1.000
    O158    O    0.00097   0.56307   0.14004   1.000
    O159    O    0.08817   0.47393   0.12459   1.000
    N160    N    0.55351   0.15985   0.80979   1.000
    O161    O    0.54077   0.09804   0.80989   1.000
    O162    O    0.49218   0.18661   0.77415   1.000
    N163    N    0.80886   0.63349   0.97003   1.000
    O164    O    0.73330   0.63703   0.95819   1.000
    O165    O    0.79589   0.62579   0.02288   1.000
    O166    O    0.75123   0.64169   0.93479   1.000
    O167    O    0.83791   0.62508   0.02288   1.000
    N168    N    0.31112   0.36761   0.02551   1.000
    O169    O    0.23556   0.36383   0.03628   1.000
    O170    O    0.29827   0.37465   0.97106   1.000
    O171    O    0.25342   0.35985   0.06334   1.000
    O172    O    0.34030   0.37535   0.97384   1.000
    N173    N    0.19988   0.66001   0.68965   1.000
    O174    O    0.26128   0.68680   0.72503   1.000
    O175    O    0.21318   0.59830   0.68975   1.000
    N176    N    0.69287   0.02505   0.36763   1.000
    O177    O    0.70539   0.97043   0.37452   1.000
    O178    O    0.76844   0.03547   0.36399   1.000
    O179    O    0.75074   0.06265   0.36005   1.000
    O180    O    0.66337   0.97337   0.37526   1.000
    N181    N    0.44227   0.86864   0.47354   1.000
    O182    O    0.49915   0.86005   0.43586   1.000
    O183    O    0.51774   0.86404   0.46265   1.000
    O184    O    0.45600   0.87553   0.52769   1.000
    O185    O    0.41397   0.87704   0.52533   1.000
    N186    N    0.56021   0.47487   0.86945   1.000
    O187    O    0.54678   0.52932   0.87652   1.000
    O188    O    0.48503   0.46394   0.86527   1.000
    O189    O    0.50307   0.43701   0.86068   1.000
    O190    O    0.58881   0.52659   0.87734   1.000
    N191    N    0.19475   0.97022   0.63240   1.000
    O192    O    0.20734   0.02328   0.62518   1.000
    O193    O    0.27008   0.95834   0.63598   1.000
    O194    O    0.25231   0.93498   0.63999   1.000
    O195    O    0.16532   0.02328   0.62446   1.000
loop_
    _geom_bond_atom_site_label_1
    _geom_bond_atom_site_label_2
    _geom_bond_distance
    _geom_bond_site_symmetry_2
    _ccdc_geom_bond_type
    Zr20   O60       0.64338  1_655   S
    Zr44   O60       0.64338      .   S
    Zr20   O61       0.63414      .   S
    Zr45   O61       0.63414      .   S
    Zr44   O62       1.30734      .   S
    Zr4    O62       1.30734      .   S
    Zr45   O63       1.15637      .   S
    Zr11   O63       1.15637  1_455   S
    Zr4    O64       1.34468      .   S
    Zr54   O64       1.34468  1_655   S
    Zr41   O65       1.15599      .   S
    Zr11   O65       1.15599      .   S
    Zr41   O66       0.63431      .   S
    Zr18   O66       0.63431      .   S
    Zr6    O67       1.33631      .   S
    Zr50   O67       1.33631      .   S
    Zr6    O68       1.30652      .   S
    Zr52   O68       1.30652      .   S
    Zr11   O69       1.17297      .   S
    Zr31   O69       1.17297      .   S
    Zr11   O70       1.17086  1_455   S
    Zr55   O70       1.17086      .   S
    Zr54   O71       0.63132      .   S
    Zr25   O71       0.63132      .   S
    Zr18   O72       0.64317  1_455   S
    Zr40   O72       0.64317      .   S
    Zr50   O73       0.63118      .   S
    Zr23   O73       0.63118      .   S
    Zr31   O74       0.64706      .   S
    Zr13   O74       0.64706      .   S
    Zr25   O75       0.64709      .   S
    Zr55   O75       0.64709      .   S
    Zr40   O76       1.30682      .   S
    Zr3    O76       1.30682      .   S
    Zr23   O77       0.64694      .   S
    Zr51   O77       0.64694      .   S
    Zr13   O78       0.63093      .   S
    Zr30   O78       0.63093      .   S
    Zr43   O79       0.64706      .   S
    Zr19   O79       0.64706      .   S
    Zr43   O80       1.17346      .   S
    Zr9    O80       1.17346      .   S
    Zr52   O81       0.64345      .   S
    Zr24   O81       0.64345      .   S
    Zr19   O82       0.63145      .   S
    Zr42   O82       0.63145      .   S
    Zr51   O83       1.17474      .   S
    Zr9    O83       1.17474      .   S
    Zr30   O84       1.33853      .   S
    Zr3    O84       1.33853  1_655   S
    Zr24   O85       0.63412      .   S
    Zr53   O85       0.63412      .   S
    Zr42   O86       1.34074      .   S
    Zr1    O86       1.34074      .   S
    Zr9    O87       1.15841      .   S
    Zr53   O87       1.15841      .   S
    Zr9    O88       1.15797      .   S
    Zr33   O88       1.15797      .   S
    Zr1    O89       1.31333      .   S
    Zr32   O89       1.31333      .   S
    Zr33   O90       0.63417      .   S
    Zr14   O90       0.63417      .   S
    Zr32   O91       0.64370      .   S
    Zr14   O91       0.64370      .   S
    Zr12   O92       0.64371      .   S
    Zr28   O92       0.64371      .   S
    Zr12   O93       0.63412      .   S
    Zr29   O93       0.63412      .   S
    Zr28   O94       1.31225      .   S
    Zr0    O94       1.31225      .   S
    Zr29   O95       1.15856      .   S
    Zr8    O95       1.15856      .   S
    Zr0    O96       1.34109      .   S
    Zr38   O96       1.34109      .   S
    Zr57   O97       1.15359      .   S
    Zr8    O97       1.15359      .   S
    Zr57   O98       0.63450      .   S
    Zr26   O98       0.63450      .   S
    Zr2    O99       1.33315      .   S
    Zr34   O99       1.33315      .   S
    Zr2    O100      1.30949      .   S
    Zr36   O100      1.30949      .   S
    Zr8    O101      1.17502      .   S
    Zr47   O101      1.17502      .   S
    Zr8    O102      1.17005      .   S
    Zr39   O102      1.17005      .   S
    Zr38   O103      0.63111      .   S
    Zr17   O103      0.63111      .   S
    Zr26   O104      0.64286      .   S
    Zr56   O104      0.64286      .   S
    Zr34   O105      0.63103      .   S
    Zr15   O105      0.63103      .   S
    Zr47   O106      0.64674      .   S
    Zr21   O106      0.64674      .   S
    Zr17   O107      0.64700      .   S
    Zr39   O107      0.64700      .   S
    Zr56   O108      1.30694      .   S
    Zr7    O108      1.30694      .   S
    Zr15   O109      0.64695      .   S
    Zr35   O109      0.64695      .   S
    Zr21   O110      0.63141      .   S
    Zr46   O110      0.63141      .   S
    Zr59   O111      0.64696      .   S
    Zr27   O111      0.64696      .   S
    Zr59   O112      1.17077      .   S
    Zr10   O112      1.17077      .   S
    Zr36   O113      0.64350      .   S
    Zr16   O113      0.64350      .   S
    Zr27   O114      0.63123      .   S
    Zr58   O114      0.63123      .   S
    Zr46   O115      1.33685      .   S
    Zr7    O115      1.33685      .   S
    Zr35   O116      1.17409      .   S
    Zr10   O116      1.17409      .   S
    Zr16   O117      0.63416      .   S
    Zr37   O117      0.63416      .   S
    Zr58   O118      1.34245      .   S
    Zr5    O118      1.34245      .   S
    Zr10   O119      1.15885      .   S
    Zr37   O119      1.15885      .   S
    Zr10   O120      1.16213      .   S
    Zr49   O120      1.16213      .   S
    Zr5    O121      1.31244      .   S
    Zr48   O121      1.31244      .   S
    Zr49   O122      0.63385      .   S
    Zr22   O122      0.63385      .   S
    Zr48   O123      0.64408      .   S
    Zr22   O123      0.64408      .   S
    Zr31   O124      1.37518      .   S
    Zr4    O124      1.37518      .   S
    Zr35   O125      1.37543      .   S
    Zr5    O125      1.37543      .   S
    Zr39   O126      1.38448      .   S
    Zr7    O126      1.38448      .   S
    Zr43   O127      1.37881      .   S
    Zr6    O127      1.37881      .   S
    Zr47   O128      1.37256      .   S
    Zr0    O128      1.37256      .   S
    Zr51   O129      1.37452      .   S
    Zr1    O129      1.37452      .   S
    Zr55   O130      1.37933      .   S
    Zr3    O130      1.37933      .   S
    Zr59   O131      1.37854      .   S
    Zr2    O131      1.37854      .   S
    N132   O133      1.14363      .   S
    Zr25   O133      1.88982      .   S
    N132   O134      1.14074      .   S
    Zr24   O134      1.88594      .   S
    N135   O136      1.02801  1_655   S
    Zr0    O136      2.30811      .   S
    N135   O137      1.01041  1_655   S
    Zr0    O137      2.33294      .   S
    N135   O138      1.01513      .   S
    Zr3    O138      2.34255      .   S
    N135   O139      1.03027      .   S
    Zr3    O139      2.32082      .   S
    N140   O141      1.14410  1_455   S
    Zr19   O141      1.89064      .   S
    N140   O142      1.14108      .   S
    Zr18   O142      1.88653  1_545   S
    N143   O144      1.14427      .   S
    Zr15   O144      1.89089      .   S
    N143   O145      1.14145      .   S
    Zr14   O145      1.88715      .   S
    N146   O147      1.13567      .   S
    Zr22   O147      1.88120  1_556   S
    N146   O148      1.14662      .   S
    Zr23   O148      1.89343      .   S
    N149   O150      1.14390  1_655   S
    Zr21   O150      1.89024      .   S
    N149   O151      1.14126      .   S
    Zr20   O151      1.88691  1_554   S
    N152   O153      1.14134      .   S
    Zr12   O153      1.88680      .   S
    N152   O154      1.14422      .   S
    Zr13   O154      1.89085      .   S
    N155   O156      1.01576      .   S
    Zr4    O156      2.33620      .   S
    N155   O157      1.00665  1_455   S
    Zr6    O157      2.33718      .   S
    N155   O158      1.03128      .   S
    Zr6    O158      2.30304  1_655   S
    N155   O159      1.02749      .   S
    Zr4    O159      2.31895      .   S
    N160   O161      1.14128      .   S
    Zr16   O161      1.88687  1_565   S
    N160   O162      1.14394      .   S
    Zr17   O162      1.89051      .   S
    N163   O164      1.01447      .   S
    Zr5    O164      2.27880      .   S
    N163   O165      0.99122  1_556   S
    Zr6    O165      2.43706      .   S
    N163   O166      1.00426      .   S
    Zr5    O166      2.29318      .   S
    N163   O167      1.05090  1_556   S
    Zr6    O167      2.37304      .   S
    N168   O169      1.00982      .   S
    Zr4    O169      2.34241      .   S
    N168   O170      1.01882  1_554   S
    Zr7    O170      2.34094      .   S
    N168   O171      1.03256      .   S
    Zr4    O171      2.31077      .   S
    N168   O172      1.02846  1_554   S
    Zr7    O172      2.32642      .   S
    N173   O174      1.14392      .   S
    Zr27   O174      1.89028      .   S
    N173   O175      1.14108      .   S
    Zr26   O175      1.88642      .   S
    N176   O177      1.01883  1_545   S
    Zr1    O177      2.34088      .   S
    N176   O178      1.00858      .   S
    Zr3    O178      2.33641      .   S
    N176   O179      1.03034      .   S
    Zr3    O179      2.30599      .   S
    N176   O180      1.02839  1_545   S
    Zr1    O180      2.32642      .   S
    N181   O182      1.02629      .   S
    Zr1    O182      2.30647      .   S
    N181   O183      1.01052      .   S
    Zr1    O183      2.32898      .   S
    N181   O184      1.01633      .   S
    Zr2    O184      2.34118      .   S
    N181   O185      1.02943      .   S
    Zr2    O185      2.32205      .   S
    N186   O187      1.01917      .   S
    Zr5    O187      2.33825      .   S
    N186   O188      1.00664      .   S
    Zr7    O188      2.33660      .   S
    N186   O189      1.03116      .   S
    Zr7    O189      2.30260      .   S
    N186   O190      1.02678      .   S
    Zr5    O190      2.32642      .   S
    N191   O192      0.99130  1_565   S
    Zr0    O192      2.44834      .   S
    N191   O193      1.01162      .   S
    Zr2    O193      2.26988      .   S
    N191   O194      1.00095      .   S
    Zr2    O194      2.28460      .   S
    N191   O195      1.05314  1_565   S
    Zr0    O195      2.38224      .   S
