# CIF file generated by openbabel 2.4.90, see http://openbabel.sf.net
data_I
_chemical_name_common ''
_cell_length_a 19.848
_cell_length_b 19.84
_cell_length_c 15.506
_cell_angle_alpha 74.229
_cell_angle_beta 74.301
_cell_angle_gamma 82.636
_space_group_name_H-M_alt 'P 1'
_space_group_name_Hall 'P 1'
loop_
    _symmetry_equiv_pos_as_xyz
    x,y,z
loop_
    _atom_site_label
    _atom_site_type_symbol
    _atom_site_fract_x
    _atom_site_fract_y
    _atom_site_fract_z
    _atom_site_occupancy
    O0      O    0.10588   0.41912   0.12130   1.000
    O1      O    0.10588   0.91911   0.12130   1.000
    O2      O    0.60588   0.41912   0.12130   1.000
    O3      O    0.60589   0.91912   0.12130   1.000
    O4      O    0.77158   0.57440   0.86898   1.000
    O5      O    0.37006   0.00107   0.78872   1.000
    O6      O    0.37007   0.50107   0.78872   1.000
    O7      O    0.87007   0.00108   0.78872   1.000
    O8      O    0.22846   0.42561   0.13100   1.000
    O9      O    0.22846   0.92560   0.13100   1.000
    O10     O    0.72846   0.42561   0.13100   1.000
    O11     O    0.72847   0.92560   0.13100   1.000
    O12     O    0.12997   0.49894   0.21127   1.000
    O13     O    0.12997   0.99893   0.21127   1.000
    O14     O    0.62997   0.49894   0.21127   1.000
    O15     O    0.62998   0.99893   0.21127   1.000
    O16     O    0.42729   0.24370   0.11335   1.000
    O17     O    0.42729   0.74369   0.11335   1.000
    O18     O    0.92729   0.24370   0.11335   1.000
    O19     O    0.92729   0.74369   0.11335   1.000
    O20     O    0.00229   0.13384   0.22437   1.000
    O21     O    0.00229   0.63383   0.22437   1.000
    O22     O    0.50229   0.13384   0.22437   1.000
    O23     O    0.50230   0.63383   0.22437   1.000
    O24     O    0.49592   0.34005   0.11807   1.000
    O25     O    0.49592   0.84004   0.11807   1.000
    O26     O    0.99592   0.34005   0.11807   1.000
    O27     O    0.99593   0.84004   0.11807   1.000
    O28     O    0.46179   0.34360   0.97121   1.000
    O29     O    0.46179   0.84359   0.97121   1.000
    O30     O    0.96179   0.34360   0.97121   1.000
    O31     O    0.96180   0.84359   0.97121   1.000
    O32     O    0.49442   0.15816   0.37772   1.000
    O33     O    0.49442   0.65816   0.37772   1.000
    O34     O    0.99442   0.15817   0.37772   1.000
    O35     O    0.99443   0.65816   0.37772   1.000
    O36     O    0.13372   0.00260   0.72422   1.000
    O37     O    0.13372   0.50259   0.72422   1.000
    O38     O    0.63372   0.00260   0.72422   1.000
    O39     O    0.63372   0.50259   0.72422   1.000
    O40     O    0.33997   0.49597   0.61798   1.000
    O41     O    0.16925   0.03095   0.04013   1.000
    O42     O    0.16925   0.53094   0.04013   1.000
    O43     O    0.66925   0.03095   0.04013   1.000
    O44     O    0.66925   0.53094   0.04013   1.000
    O45     O    0.36864   0.36265   0.10996   1.000
    O46     O    0.36865   0.86264   0.10996   1.000
    O47     O    0.86864   0.36265   0.10996   1.000
    O48     O    0.86865   0.86264   0.10996   1.000
    O49     O    0.01965   0.03380   0.35853   1.000
    O50     O    0.01965   0.53380   0.35853   1.000
    O51     O    0.51965   0.03380   0.35853   1.000
    O52     O    0.51966   0.53380   0.35853   1.000
    O53     O    0.39991   0.09459   0.36247   1.000
    O54     O    0.39991   0.59459   0.36247   1.000
    O55     O    0.89991   0.09459   0.36247   1.000
    O56     O    0.89991   0.59459   0.36247   1.000
    O57     O    0.08109   0.39410   0.37865   1.000
    O58     O    0.08109   0.89410   0.37865   1.000
    O59     O    0.58109   0.39410   0.37865   1.000
    O60     O    0.58109   0.89410   0.37865   1.000
    O61     O    0.07427   0.27150   0.36925   1.000
    O62     O    0.07427   0.77149   0.36925   1.000
    O63     O    0.57427   0.27150   0.36925   1.000
    O64     O    0.57427   0.77149   0.36925   1.000
    O65     O    0.00122   0.37021   0.28859   1.000
    O66     O    0.00123   0.87020   0.28859   1.000
    O67     O    0.50123   0.37021   0.28800   1.000
    O68     O    0.50123   0.87020   0.28800   1.000
    O69     O    0.25649   0.07345   0.38494   1.000
    O70     O    0.25649   0.57344   0.38494   1.000
    O71     O    0.75649   0.07345   0.38494   1.000
    O72     O    0.75649   0.57344   0.38494   1.000
    O73     O    0.36631   0.49742   0.27577   1.000
    O74     O    0.36631   0.99742   0.27577   1.000
    O75     O    0.86631   0.49742   0.27577   1.000
    O76     O    0.86631   0.99742   0.27577   1.000
    O77     O    0.16006   0.00405   0.38201   1.000
    O78     O    0.16006   0.50405   0.38201   1.000
    O79     O    0.66006   0.00405   0.38201   1.000
    O80     O    0.66007   0.50405   0.38201   1.000
    O81     O    0.15797   0.03819   0.52830   1.000
    O82     O    0.15797   0.53818   0.52830   1.000
    O83     O    0.65797   0.03819   0.52830   1.000
    O84     O    0.65798   0.53818   0.52830   1.000
    O85     O    0.34177   0.00551   0.12236   1.000
    O86     O    0.34177   0.50550   0.12236   1.000
    O87     O    0.84177   0.00551   0.12236   1.000
    O88     O    0.84178   0.50550   0.12236   1.000
    O89     O    0.46912   0.33103   0.45970   1.000
    O90     O    0.46913   0.83103   0.45970   1.000
    O91     O    0.96913   0.33103   0.45970   1.000
    O92     O    0.96913   0.83103   0.45970   1.000
    O93     O    0.13717   0.13133   0.39018   1.000
    O94     O    0.13717   0.63132   0.39018   1.000
    O95     O    0.63718   0.13133   0.39018   1.000
    O96     O    0.63718   0.63132   0.39018   1.000
    O97     O    0.46614   0.48052   0.14138   1.000
    O98     O    0.46614   0.98051   0.14138   1.000
    O99     O    0.96614   0.48052   0.14138   1.000
    O100    O    0.96615   0.98051   0.14138   1.000
    O101    O    0.40507   0.10017   0.13780   1.000
    O102    O    0.40507   0.60017   0.13780   1.000
    O103    O    0.90507   0.10017   0.13785   1.000
    O104    O    0.90507   0.60017   0.13785   1.000
    O105    O    0.39415   0.08089   0.87870   1.000
    O106    O    0.39415   0.58088   0.87870   1.000
    O107    O    0.89415   0.08089   0.87870   1.000
    O108    O    0.89415   0.58088   0.87870   1.000
    O109    O    0.27157   0.07440   0.86898   1.000
    O110    O    0.27157   0.57440   0.86898   1.000
    O111    O    0.77157   0.07440   0.86898   1.000
    O112    O    0.87007   0.50107   0.78872   1.000
    O113    O    0.07274   0.25631   0.88662   1.000
    O114    O    0.07274   0.75631   0.88662   1.000
    O115    O    0.57274   0.25631   0.88662   1.000
    O116    O    0.57275   0.75631   0.88662   1.000
    O117    O    0.49773   0.36618   0.77563   1.000
    O118    O    0.49773   0.86618   0.77563   1.000
    O119    O    0.99773   0.36618   0.77563   1.000
    O120    O    0.99773   0.86618   0.77563   1.000
    O121    O    0.00411   0.15995   0.88194   1.000
    O122    O    0.00411   0.65995   0.88194   1.000
    O123    O    0.50411   0.15995   0.88194   1.000
    O124    O    0.50412   0.65994   0.88194   1.000
    O125    O    0.03825   0.15643   0.02878   1.000
    O126    O    0.03825   0.65642   0.02878   1.000
    O127    O    0.53825   0.15643   0.02878   1.000
    O128    O    0.53826   0.65642   0.02878   1.000
    O129    O    0.00560   0.34184   0.62228   1.000
    O130    O    0.00560   0.84184   0.62228   1.000
    O131    O    0.50560   0.34184   0.62228   1.000
    O132    O    0.50561   0.84184   0.62228   1.000
    O133    O    0.33077   0.46906   0.95986   1.000
    O134    O    0.33078   0.96905   0.95986   1.000
    O135    O    0.83078   0.46906   0.95986   1.000
    O136    O    0.83078   0.96905   0.95986   1.000
    O137    O    0.13139   0.13737   0.89000   1.000
    O138    O    0.13140   0.63736   0.89000   1.000
    O139    O    0.63140   0.13737   0.89003   1.000
    O140    O    0.63140   0.63736   0.89003   1.000
    O141    O    0.48038   0.46621   0.64145   1.000
    O142    O    0.48038   0.96621   0.64145   1.000
    O143    O    0.98038   0.46621   0.64145   1.000
    O144    O    0.98038   0.96621   0.64145   1.000
    O145    O    0.10012   0.40542   0.63752   1.000
    O146    O    0.10012   0.90541   0.63752   1.000
    O147    O    0.60012   0.40542   0.63752   1.000
    O148    O    0.60012   0.90541   0.63752   1.000
    O149    O    0.41894   0.10591   0.62135   1.000
    O150    O    0.41894   0.60591   0.62135   1.000
    O151    O    0.91894   0.10591   0.62130   1.000
    O152    O    0.91895   0.60591   0.62130   1.000
    O153    O    0.42576   0.22852   0.63075   1.000
    O154    O    0.42576   0.72851   0.63075   1.000
    O155    O    0.92576   0.22852   0.63075   1.000
    O156    O    0.92576   0.72851   0.63075   1.000
    O157    O    0.49880   0.12981   0.71140   1.000
    O158    O    0.49881   0.62980   0.71140   1.000
    O159    O    0.99880   0.12981   0.71140   1.000
    O160    O    0.99881   0.62980   0.71140   1.000
    O161    O    0.24354   0.42657   0.61500   1.000
    O162    O    0.24354   0.92657   0.61500   1.000
    O163    O    0.74354   0.42657   0.61500   1.000
    O164    O    0.74354   0.92657   0.61500   1.000
    O165    O    0.33997   0.99596   0.61798   1.000
    O166    O    0.83997   0.49597   0.61798   1.000
    O167    O    0.83997   0.99596   0.61798   1.000
    O168    O    0.34205   0.46183   0.47166   1.000
    O169    O    0.34205   0.96182   0.47166   1.000
    O170    O    0.84205   0.46183   0.47166   1.000
    O171    O    0.84206   0.96182   0.47166   1.000
    O172    O    0.15825   0.49450   0.87764   1.000
    O173    O    0.15826   0.99449   0.87764   1.000
    O174    O    0.65825   0.49450   0.87764   1.000
    O175    O    0.65826   0.99449   0.87764   1.000
    O176    O    0.03090   0.16898   0.54030   1.000
    O177    O    0.03090   0.66898   0.54030   1.000
    O178    O    0.53090   0.16898   0.54030   1.000
    O179    O    0.53091   0.66898   0.54030   1.000
    O180    O    0.36285   0.36869   0.60981   1.000
    O181    O    0.36286   0.86869   0.60981   1.000
    O182    O    0.86286   0.36869   0.60981   1.000
    O183    O    0.86286   0.86869   0.60981   1.000
    O184    O    0.03388   0.01948   0.85861   1.000
    O185    O    0.03388   0.51948   0.85861   1.000
    O186    O    0.53388   0.01948   0.85861   1.000
    O187    O    0.53389   0.51948   0.85861   1.000
    O188    O    0.09497   0.39983   0.86213   1.000
    O189    O    0.09498   0.89983   0.86213   1.000
    O190    O    0.59498   0.39983   0.86213   1.000
    O191    O    0.59498   0.89983   0.86213   1.000
