# CIF file generated by openbabel 2.4.90, see http://openbabel.sf.net
data_I
_chemical_name_common ''
_cell_length_a 19.848
_cell_length_b 19.84
_cell_length_c 15.506
_cell_angle_alpha 74.229
_cell_angle_beta 74.301
_cell_angle_gamma 82.636
_space_group_name_H-M_alt 'P 1'
_space_group_name_Hall 'P 1'
loop_
    _symmetry_equiv_pos_as_xyz
    x,y,z
loop_
    _atom_site_label
    _atom_site_type_symbol
    _atom_site_fract_x
    _atom_site_fract_y
    _atom_site_fract_z
    _atom_site_occupancy
    P0      P    0.15831   0.46846   0.12595   1.000
    P1      P    0.15831   0.96846   0.12595   1.000
    P2      P    0.65831   0.46846   0.12595   1.000
    P3      P    0.65831   0.96846   0.12595   1.000
    P4      P    0.43877   0.32267   0.07779   1.000
    P5      P    0.43878   0.82266   0.07779   1.000
    P6      P    0.93878   0.32267   0.07779   1.000
    P7      P    0.93878   0.82266   0.07779   1.000
    P8      P    0.47928   0.10508   0.33034   1.000
    P9      P    0.47929   0.60507   0.33034   1.000
    P10     P    0.97929   0.10508   0.33034   1.000
    P11     P    0.97929   0.60507   0.33034   1.000
    P12     P    0.03162   0.34179   0.37403   1.000
    P13     P    0.03162   0.84178   0.37403   1.000
    P14     P    0.53162   0.34179   0.37403   1.000
    P15     P    0.53163   0.84178   0.37403   1.000
    P16     P    0.17773   0.06138   0.42173   1.000
    P17     P    0.17774   0.56137   0.42173   1.000
    P18     P    0.67774   0.06138   0.42173   1.000
    P19     P    0.67774   0.56137   0.42173   1.000
    P20     P    0.39483   0.02068   0.16977   1.000
    P21     P    0.39483   0.52068   0.16977   1.000
    P22     P    0.89483   0.02068   0.16977   1.000
    P23     P    0.89484   0.52068   0.16977   1.000
    P24     P    0.34172   0.03155   0.87404   1.000
    P25     P    0.34173   0.53154   0.87404   1.000
    P26     P    0.84173   0.03155   0.87404   1.000
    P27     P    0.84173   0.53154   0.87404   1.000
    P28     P    0.06126   0.17734   0.92220   1.000
    P29     P    0.06126   0.67734   0.92220   1.000
    P30     P    0.56126   0.17734   0.92220   1.000
    P31     P    0.56127   0.67734   0.92220   1.000
    P32     P    0.02074   0.39494   0.66965   1.000
    P33     P    0.02074   0.89493   0.66965   1.000
    P34     P    0.52074   0.39494   0.66965   1.000
    P35     P    0.52075   0.89493   0.66965   1.000
    P36     P    0.46841   0.15823   0.62597   1.000
    P37     P    0.46841   0.65822   0.62597   1.000
    P38     P    0.96841   0.15823   0.62597   1.000
    P39     P    0.96841   0.65822   0.62597   1.000
    P40     P    0.32229   0.43864   0.57826   1.000
    P41     P    0.32229   0.93864   0.57826   1.000
    P42     P    0.82229   0.43864   0.57826   1.000
    P43     P    0.82230   0.93864   0.57826   1.000
    P44     P    0.10520   0.47933   0.83022   1.000
    P45     P    0.10520   0.97932   0.83022   1.000
    P46     P    0.60520   0.47933   0.83022   1.000
    P47     P    0.60520   0.97932   0.83022   1.000
