# CIF file generated by openbabel 2.4.90, see http://openbabel.sf.net
data_I
_chemical_name_common ''
_cell_length_a 19.848
_cell_length_b 19.84
_cell_length_c 15.506
_cell_angle_alpha 74.229
_cell_angle_beta 74.301
_cell_angle_gamma 82.636
_space_group_name_H-M_alt 'P 1'
_space_group_name_Hall 'P 1'
loop_
    _symmetry_equiv_pos_as_xyz
    x,y,z
loop_
    _atom_site_label
    _atom_site_type_symbol
    _atom_site_fract_x
    _atom_site_fract_y
    _atom_site_fract_z
    _atom_site_occupancy
    P0      P    0.15831   0.46846   0.12595   1.000
    P1      P    0.15831   0.96846   0.12595   1.000
    P2      P    0.65831   0.46846   0.12595   1.000
    P3      P    0.65831   0.96846   0.12595   1.000
    P4      P    0.43877   0.32267   0.07779   1.000
    P5      P    0.43878   0.82266   0.07779   1.000
    P6      P    0.93878   0.32267   0.07779   1.000
    P7      P    0.93878   0.82266   0.07779   1.000
    P8      P    0.47928   0.10508   0.33034   1.000
    P9      P    0.47929   0.60507   0.33034   1.000
    P10     P    0.97929   0.10508   0.33034   1.000
    P11     P    0.97929   0.60507   0.33034   1.000
    P12     P    0.03162   0.34179   0.37403   1.000
    P13     P    0.03162   0.84178   0.37403   1.000
    P14     P    0.53162   0.34179   0.37403   1.000
    P15     P    0.53163   0.84178   0.37403   1.000
    P16     P    0.17773   0.06138   0.42173   1.000
    P17     P    0.17774   0.56137   0.42173   1.000
    P18     P    0.67774   0.06138   0.42173   1.000
    P19     P    0.67774   0.56137   0.42173   1.000
    P20     P    0.39483   0.02068   0.16977   1.000
    P21     P    0.39483   0.52068   0.16977   1.000
    P22     P    0.89483   0.02068   0.16977   1.000
    P23     P    0.89484   0.52068   0.16977   1.000
    P24     P    0.34172   0.03155   0.87404   1.000
    P25     P    0.34173   0.53154   0.87404   1.000
    P26     P    0.84173   0.03155   0.87404   1.000
    P27     P    0.84173   0.53154   0.87404   1.000
    P28     P    0.06126   0.17734   0.92220   1.000
    P29     P    0.06126   0.67734   0.92220   1.000
    P30     P    0.56126   0.17734   0.92220   1.000
    P31     P    0.56127   0.67734   0.92220   1.000
    P32     P    0.02074   0.39494   0.66965   1.000
    P33     P    0.02074   0.89493   0.66965   1.000
    P34     P    0.52074   0.39494   0.66965   1.000
    P35     P    0.52075   0.89493   0.66965   1.000
    P36     P    0.46841   0.15823   0.62597   1.000
    P37     P    0.46841   0.65822   0.62597   1.000
    P38     P    0.96841   0.15823   0.62597   1.000
    P39     P    0.96841   0.65822   0.62597   1.000
    P40     P    0.32229   0.43864   0.57826   1.000
    P41     P    0.32229   0.93864   0.57826   1.000
    P42     P    0.82229   0.43864   0.57826   1.000
    P43     P    0.82230   0.93864   0.57826   1.000
    P44     P    0.10520   0.47933   0.83022   1.000
    P45     P    0.10520   0.97932   0.83022   1.000
    P46     P    0.60520   0.47933   0.83022   1.000
    P47     P    0.60520   0.97932   0.83022   1.000
    O48     O    0.10588   0.41912   0.12130   1.000
    O49     O    0.10588   0.91911   0.12130   1.000
    O50     O    0.60588   0.41912   0.12130   1.000
    O51     O    0.60589   0.91912   0.12130   1.000
    O52     O    0.77158   0.57440   0.86898   1.000
    O53     O    0.37006   0.00107   0.78872   1.000
    O54     O    0.37007   0.50107   0.78872   1.000
    O55     O    0.87007   0.00108   0.78872   1.000
    O56     O    0.22846   0.42561   0.13100   1.000
    O57     O    0.22846   0.92560   0.13100   1.000
    O58     O    0.72846   0.42561   0.13100   1.000
    O59     O    0.72847   0.92560   0.13100   1.000
    O60     O    0.12997   0.49894   0.21127   1.000
    O61     O    0.12997   0.99893   0.21127   1.000
    O62     O    0.62997   0.49894   0.21127   1.000
    O63     O    0.62998   0.99893   0.21127   1.000
    O64     O    0.42729   0.24370   0.11335   1.000
    O65     O    0.42729   0.74369   0.11335   1.000
    O66     O    0.92729   0.24370   0.11335   1.000
    O67     O    0.92729   0.74369   0.11335   1.000
    O68     O    0.00229   0.13384   0.22437   1.000
    O69     O    0.00229   0.63383   0.22437   1.000
    O70     O    0.50229   0.13384   0.22437   1.000
    O71     O    0.50230   0.63383   0.22437   1.000
    O72     O    0.49592   0.34005   0.11807   1.000
    O73     O    0.49592   0.84004   0.11807   1.000
    O74     O    0.99592   0.34005   0.11807   1.000
    O75     O    0.99593   0.84004   0.11807   1.000
    O76     O    0.46179   0.34360   0.97121   1.000
    O77     O    0.46179   0.84359   0.97121   1.000
    O78     O    0.96179   0.34360   0.97121   1.000
    O79     O    0.96180   0.84359   0.97121   1.000
    O80     O    0.49442   0.15816   0.37772   1.000
    O81     O    0.49442   0.65816   0.37772   1.000
    O82     O    0.99442   0.15817   0.37772   1.000
    O83     O    0.99443   0.65816   0.37772   1.000
    O84     O    0.13372   0.00260   0.72422   1.000
    O85     O    0.13372   0.50259   0.72422   1.000
    O86     O    0.63372   0.00260   0.72422   1.000
    O87     O    0.63372   0.50259   0.72422   1.000
    O88     O    0.33997   0.49597   0.61798   1.000
    O89     O    0.16925   0.03095   0.04013   1.000
    O90     O    0.16925   0.53094   0.04013   1.000
    O91     O    0.66925   0.03095   0.04013   1.000
    O92     O    0.66925   0.53094   0.04013   1.000
    O93     O    0.36864   0.36265   0.10996   1.000
    O94     O    0.36865   0.86264   0.10996   1.000
    O95     O    0.86864   0.36265   0.10996   1.000
    O96     O    0.86865   0.86264   0.10996   1.000
    O97     O    0.01965   0.03380   0.35853   1.000
    O98     O    0.01965   0.53380   0.35853   1.000
    O99     O    0.51965   0.03380   0.35853   1.000
    O100    O    0.51966   0.53380   0.35853   1.000
    O101    O    0.39991   0.09459   0.36247   1.000
    O102    O    0.39991   0.59459   0.36247   1.000
    O103    O    0.89991   0.09459   0.36247   1.000
    O104    O    0.89991   0.59459   0.36247   1.000
    O105    O    0.08109   0.39410   0.37865   1.000
    O106    O    0.08109   0.89410   0.37865   1.000
    O107    O    0.58109   0.39410   0.37865   1.000
    O108    O    0.58109   0.89410   0.37865   1.000
    O109    O    0.07427   0.27150   0.36925   1.000
    O110    O    0.07427   0.77149   0.36925   1.000
    O111    O    0.57427   0.27150   0.36925   1.000
    O112    O    0.57427   0.77149   0.36925   1.000
    O113    O    0.00122   0.37021   0.28859   1.000
    O114    O    0.00123   0.87020   0.28859   1.000
    O115    O    0.50123   0.37021   0.28800   1.000
    O116    O    0.50123   0.87020   0.28800   1.000
    O117    O    0.25649   0.07345   0.38494   1.000
    O118    O    0.25649   0.57344   0.38494   1.000
    O119    O    0.75649   0.07345   0.38494   1.000
    O120    O    0.75649   0.57344   0.38494   1.000
    O121    O    0.36631   0.49742   0.27577   1.000
    O122    O    0.36631   0.99742   0.27577   1.000
    O123    O    0.86631   0.49742   0.27577   1.000
    O124    O    0.86631   0.99742   0.27577   1.000
    O125    O    0.16006   0.00405   0.38201   1.000
    O126    O    0.16006   0.50405   0.38201   1.000
    O127    O    0.66006   0.00405   0.38201   1.000
    O128    O    0.66007   0.50405   0.38201   1.000
    O129    O    0.15797   0.03819   0.52830   1.000
    O130    O    0.15797   0.53818   0.52830   1.000
    O131    O    0.65797   0.03819   0.52830   1.000
    O132    O    0.65798   0.53818   0.52830   1.000
    O133    O    0.34177   0.00551   0.12236   1.000
    O134    O    0.34177   0.50550   0.12236   1.000
    O135    O    0.84177   0.00551   0.12236   1.000
    O136    O    0.84178   0.50550   0.12236   1.000
    O137    O    0.46912   0.33103   0.45970   1.000
    O138    O    0.46913   0.83103   0.45970   1.000
    O139    O    0.96913   0.33103   0.45970   1.000
    O140    O    0.96913   0.83103   0.45970   1.000
    O141    O    0.13717   0.13133   0.39018   1.000
    O142    O    0.13717   0.63132   0.39018   1.000
    O143    O    0.63718   0.13133   0.39018   1.000
    O144    O    0.63718   0.63132   0.39018   1.000
    O145    O    0.46614   0.48052   0.14138   1.000
    O146    O    0.46614   0.98051   0.14138   1.000
    O147    O    0.96614   0.48052   0.14138   1.000
    O148    O    0.96615   0.98051   0.14138   1.000
    O149    O    0.40507   0.10017   0.13780   1.000
    O150    O    0.40507   0.60017   0.13780   1.000
    O151    O    0.90507   0.10017   0.13785   1.000
    O152    O    0.90507   0.60017   0.13785   1.000
    O153    O    0.39415   0.08089   0.87870   1.000
    O154    O    0.39415   0.58088   0.87870   1.000
    O155    O    0.89415   0.08089   0.87870   1.000
    O156    O    0.89415   0.58088   0.87870   1.000
    O157    O    0.27157   0.07440   0.86898   1.000
    O158    O    0.27157   0.57440   0.86898   1.000
    O159    O    0.77157   0.07440   0.86898   1.000
    O160    O    0.87007   0.50107   0.78872   1.000
    O161    O    0.07274   0.25631   0.88662   1.000
    O162    O    0.07274   0.75631   0.88662   1.000
    O163    O    0.57274   0.25631   0.88662   1.000
    O164    O    0.57275   0.75631   0.88662   1.000
    O165    O    0.49773   0.36618   0.77563   1.000
    O166    O    0.49773   0.86618   0.77563   1.000
    O167    O    0.99773   0.36618   0.77563   1.000
    O168    O    0.99773   0.86618   0.77563   1.000
    O169    O    0.00411   0.15995   0.88194   1.000
    O170    O    0.00411   0.65995   0.88194   1.000
    O171    O    0.50411   0.15995   0.88194   1.000
    O172    O    0.50412   0.65994   0.88194   1.000
    O173    O    0.03825   0.15643   0.02878   1.000
    O174    O    0.03825   0.65642   0.02878   1.000
    O175    O    0.53825   0.15643   0.02878   1.000
    O176    O    0.53826   0.65642   0.02878   1.000
    O177    O    0.00560   0.34184   0.62228   1.000
    O178    O    0.00560   0.84184   0.62228   1.000
    O179    O    0.50560   0.34184   0.62228   1.000
    O180    O    0.50561   0.84184   0.62228   1.000
    O181    O    0.33077   0.46906   0.95986   1.000
    O182    O    0.33078   0.96905   0.95986   1.000
    O183    O    0.83078   0.46906   0.95986   1.000
    O184    O    0.83078   0.96905   0.95986   1.000
    O185    O    0.13139   0.13737   0.89000   1.000
    O186    O    0.13140   0.63736   0.89000   1.000
    O187    O    0.63140   0.13737   0.89003   1.000
    O188    O    0.63140   0.63736   0.89003   1.000
    O189    O    0.48038   0.46621   0.64145   1.000
    O190    O    0.48038   0.96621   0.64145   1.000
    O191    O    0.98038   0.46621   0.64145   1.000
    O192    O    0.98038   0.96621   0.64145   1.000
    O193    O    0.10012   0.40542   0.63752   1.000
    O194    O    0.10012   0.90541   0.63752   1.000
    O195    O    0.60012   0.40542   0.63752   1.000
    O196    O    0.60012   0.90541   0.63752   1.000
    O197    O    0.41894   0.10591   0.62135   1.000
    O198    O    0.41894   0.60591   0.62135   1.000
    O199    O    0.91894   0.10591   0.62130   1.000
    O200    O    0.91895   0.60591   0.62130   1.000
    O201    O    0.42576   0.22852   0.63075   1.000
    O202    O    0.42576   0.72851   0.63075   1.000
    O203    O    0.92576   0.22852   0.63075   1.000
    O204    O    0.92576   0.72851   0.63075   1.000
    O205    O    0.49880   0.12981   0.71140   1.000
    O206    O    0.49881   0.62980   0.71140   1.000
    O207    O    0.99880   0.12981   0.71140   1.000
    O208    O    0.99881   0.62980   0.71140   1.000
    O209    O    0.24354   0.42657   0.61500   1.000
    O210    O    0.24354   0.92657   0.61500   1.000
    O211    O    0.74354   0.42657   0.61500   1.000
    O212    O    0.74354   0.92657   0.61500   1.000
    O213    O    0.33997   0.99596   0.61798   1.000
    O214    O    0.83997   0.49597   0.61798   1.000
    O215    O    0.83997   0.99596   0.61798   1.000
    O216    O    0.34205   0.46183   0.47166   1.000
    O217    O    0.34205   0.96182   0.47166   1.000
    O218    O    0.84205   0.46183   0.47166   1.000
    O219    O    0.84206   0.96182   0.47166   1.000
    O220    O    0.15825   0.49450   0.87764   1.000
    O221    O    0.15826   0.99449   0.87764   1.000
    O222    O    0.65825   0.49450   0.87764   1.000
    O223    O    0.65826   0.99449   0.87764   1.000
    O224    O    0.03090   0.16898   0.54030   1.000
    O225    O    0.03090   0.66898   0.54030   1.000
    O226    O    0.53090   0.16898   0.54030   1.000
    O227    O    0.53091   0.66898   0.54030   1.000
    O228    O    0.36285   0.36869   0.60981   1.000
    O229    O    0.36286   0.86869   0.60981   1.000
    O230    O    0.86286   0.36869   0.60981   1.000
    O231    O    0.86286   0.86869   0.60981   1.000
    O232    O    0.03388   0.01948   0.85861   1.000
    O233    O    0.03388   0.51948   0.85861   1.000
    O234    O    0.53388   0.01948   0.85861   1.000
    O235    O    0.53389   0.51948   0.85861   1.000
    O236    O    0.09497   0.39983   0.86213   1.000
    O237    O    0.09498   0.89983   0.86213   1.000
    O238    O    0.59498   0.39983   0.86213   1.000
    O239    O    0.59498   0.89983   0.86213   1.000
loop_
    _geom_bond_atom_site_label_1
    _geom_bond_atom_site_label_2
    _geom_bond_distance
    _geom_bond_site_symmetry_2
    _ccdc_geom_bond_type
    O176   P31       1.54250  1_554   S
    O175   P30       1.54250  1_554   S
    O174   P29       1.54250  1_554   S
    O173   P28       1.54250  1_554   S
    O92    P2        1.53969      .   S
    O91    P3        1.53981  1_545   S
    O90    P0        1.53969      .   S
    O89    P1        1.53981  1_545   S
    P5     O94       1.54010      .   S
    P5     O65       1.53778      .   S
    P5     O73       1.54795      .   S
    P5     O77       1.54251  1_554   S
    P7     O96       1.54010      .   S
    P7     O67       1.53778      .   S
    P7     O75       1.54794      .   S
    P7     O79       1.54251  1_554   S
    P6     O95       1.54011      .   S
    P6     O66       1.53778      .   S
    P6     O74       1.54792      .   S
    P6     O78       1.54251  1_554   S
    P4     O93       1.54010      .   S
    P4     O64       1.53778      .   S
    P4     O72       1.54793      .   S
    P4     O76       1.54251  1_554   S
    O48    P0        1.54473      .   S
    O49    P1        1.54473      .   S
    O50    P2        1.54473      .   S
    O51    P3        1.54475      .   S
    O136   P23       1.53645      .   S
    O133   P20       1.53646      .   S
    O135   P22       1.53647      .   S
    O134   P21       1.53645      .   S
    P3     O59       1.54505      .   S
    P3     O63       1.54183      .   S
    P0     O56       1.54505      .   S
    P0     O60       1.54182      .   S
    P1     O57       1.54506      .   S
    P1     O61       1.54182      .   S
    P2     O58       1.54505      .   S
    P2     O62       1.54183      .   S
    O149   P20       1.54176      .   S
    O150   P21       1.54175      .   S
    O152   P23       1.54174      .   S
    O151   P22       1.54174      .   S
    O148   P22       1.54814  1_565   S
    O147   P23       1.54793      .   S
    O146   P20       1.54814  1_565   S
    O145   P21       1.54793      .   S
    P20    O122      1.54469  1_545   S
    P21    O121      1.54470      .   S
    P22    O124      1.54469  1_545   S
    P23    O123      1.54470      .   S
    O68    P10       1.54440  1_455   S
    O69    P11       1.54440  1_455   S
    O70    P8        1.54441      .   S
    O71    P9        1.54441      .   S
    O115   P14       1.54947      .   S
    O116   P15       1.54947      .   S
    O113   P12       1.54154      .   S
    O114   P13       1.54153      .   S
    P10    O97       1.54782  1_655   S
    P10    O103      1.54160      .   S
    P10    O82       1.53641      .   S
    P9     O100      1.54787      .   S
    P9     O102      1.54160      .   S
    P9     O81       1.53640      .   S
    P8     O99       1.54788      .   S
    P8     O101      1.54160      .   S
    P8     O80       1.53639      .   S
    P11    O98       1.54782  1_655   S
    P11    O104      1.54160      .   S
    P11    O83       1.53638      .   S
    O109   P12       1.54478      .   S
    O110   P13       1.54479      .   S
    O111   P14       1.54479      .   S
    O112   P15       1.54478      .   S
    P12    O105      1.54468      .   S
    P12    O139      1.53974  1_455   S
    P13    O106      1.54468      .   S
    P13    O140      1.53973  1_455   S
    P14    O107      1.54469      .   S
    P14    O137      1.53980      .   S
    P15    O108      1.54468      .   S
    P15    O138      1.53980      .   S
    O125   P16       1.54787      .   S
    O126   P17       1.54785      .   S
    O127   P18       1.54787      .   S
    O128   P19       1.54785      .   S
    O120   P19       1.53793      .   S
    O119   P18       1.53792      .   S
    O118   P17       1.53793      .   S
    O117   P16       1.53792      .   S
    O141   P16       1.53983      .   S
    O142   P17       1.53984      .   S
    O143   P18       1.53983      .   S
    O144   P19       1.53984      .   S
    P16    O129      1.54221      .   S
    P17    O130      1.54221      .   S
    P18    O131      1.54221      .   S
    P19    O132      1.54221      .   S
    O219   P43       1.54264      .   S
    O218   P42       1.54264      .   S
    O217   P41       1.54264      .   S
    O216   P40       1.54264      .   S
    O225   P39       1.53973  1_455   S
    O226   P36       1.53980      .   S
    O227   P37       1.53980      .   S
    O224   P38       1.53973  1_455   S
    P41    O229      1.53983      .   S
    P41    O210      1.53788      .   S
    P41    O213      1.54791      .   S
    P43    O231      1.53983      .   S
    P43    O212      1.53788      .   S
    P43    O215      1.54790      .   S
    P42    O230      1.53984      .   S
    P42    O211      1.53788      .   S
    P42    O214      1.54791      .   S
    P40    O228      1.53984      .   S
    P40    O209      1.53788      .   S
    P40    O88       1.54791      .   S
    O199   P38       1.54497      .   S
    O200   P39       1.54499      .   S
    O197   P36       1.54466      .   S
    O198   P37       1.54468      .   S
    O179   P34       1.53641      .   S
    O178   P33       1.53641      .   S
    O177   P32       1.53641      .   S
    O180   P35       1.53641      .   S
    P39    O204      1.54480      .   S
    P39    O208      1.54141      .   S
    P38    O203      1.54480      .   S
    P38    O207      1.54139      .   S
    P37    O202      1.54480      .   S
    P37    O206      1.54142      .   S
    P36    O201      1.54480      .   S
    P36    O205      1.54141      .   S
    O193   P32       1.54161      .   S
    O194   P33       1.54161      .   S
    O195   P34       1.54161      .   S
    O196   P35       1.54162      .   S
    O189   P34       1.54787      .   S
    O192   P33       1.54781  1_655   S
    O191   P32       1.54781  1_655   S
    O190   P35       1.54786      .   S
    P33    O168      1.54452  1_455   S
    P34    O165      1.54453      .   S
    P35    O166      1.54453      .   S
    P32    O167      1.54453  1_455   S
    O87    P46       1.54471      .   S
    O86    P47       1.54470  1_545   S
    O85    P44       1.54471      .   S
    O84    P45       1.54470  1_545   S
    O160   P27       1.54178      .   S
    O55    P26       1.54179      .   S
    O54    P25       1.54179      .   S
    O53    P24       1.54179      .   S
    P46    O235      1.54794      .   S
    P46    O238      1.54173      .   S
    P46    O222      1.53643      .   S
    P47    O234      1.54812  1_565   S
    P47    O239      1.54175      .   S
    P47    O223      1.53645      .   S
    P45    O232      1.54812  1_565   S
    P45    O237      1.54175      .   S
    P45    O221      1.53645      .   S
    P44    O233      1.54794      .   S
    P44    O236      1.54173      .   S
    P44    O220      1.53643      .   S
    O52    P27       1.54507      .   S
    O159   P26       1.54506      .   S
    O158   P25       1.54507      .   S
    O157   P24       1.54507      .   S
    P27    O156      1.54473      .   S
    P27    O183      1.53970      .   S
    P26    O155      1.54473      .   S
    P26    O184      1.53983  1_545   S
    P25    O154      1.54472      .   S
    P25    O181      1.53970      .   S
    P24    O153      1.54475      .   S
    P24    O182      1.53982  1_545   S
    O170   P29       1.54789      .   S
    O171   P30       1.54790      .   S
    O172   P31       1.54790      .   S
    O169   P28       1.54791      .   S
    O161   P28       1.53779      .   S
    O162   P29       1.53779      .   S
    O163   P30       1.53779      .   S
    O164   P31       1.53779      .   S
    O186   P29       1.54020      .   S
    O185   P28       1.54019      .   S
    O187   P30       1.54010      .   S
    O188   P31       1.54010      .   S
