# CIF file generated by openbabel 2.4.90, see http://openbabel.sf.net
data_I
_chemical_name_common ''
_cell_length_a 19.848
_cell_length_b 19.84
_cell_length_c 15.506
_cell_angle_alpha 74.229
_cell_angle_beta 74.301
_cell_angle_gamma 82.636
_space_group_name_H-M_alt 'P 1'
_space_group_name_Hall 'P 1'
loop_
    _symmetry_equiv_pos_as_xyz
    x,y,z
loop_
    _atom_site_label
    _atom_site_type_symbol
    _atom_site_fract_x
    _atom_site_fract_y
    _atom_site_fract_z
    _atom_site_occupancy
    Al0     Al   0.46836   0.65898   0.12580   1.000
    Al1     Al   0.96836   0.15899   0.12580   1.000
    Al2     Al   0.96836   0.65898   0.12580   1.000
    Al3     Al   0.01689   0.40155   0.16808   1.000
    Al4     Al   0.01689   0.90155   0.16808   1.000
    Al5     Al   0.51689   0.40155   0.16808   1.000
    Al6     Al   0.51690   0.90155   0.16808   1.000
    Al7     Al   0.05934   0.18216   0.41978   1.000
    Al8     Al   0.05934   0.68215   0.41978   1.000
    Al9     Al   0.55934   0.18216   0.41978   1.000
    Al10    Al   0.55935   0.68215   0.41978   1.000
    Al11    Al   0.34084   0.03168   0.37402   1.000
    Al12    Al   0.34084   0.53167   0.37402   1.000
    Al13    Al   0.84084   0.03168   0.37402   1.000
    Al14    Al   0.84084   0.53167   0.37402   1.000
    Al15    Al   0.09864   0.48317   0.33179   1.000
    Al16    Al   0.09864   0.98316   0.33179   1.000
    Al17    Al   0.59864   0.48317   0.33179   1.000
    Al18    Al   0.59864   0.98316   0.33179   1.000
    Al19    Al   0.31773   0.44055   0.08038   1.000
    Al20    Al   0.31773   0.94054   0.08038   1.000
    Al21    Al   0.81773   0.44055   0.08038   1.000
    Al22    Al   0.81774   0.94054   0.08038   1.000
    Al23    Al   0.03168   0.34102   0.87418   1.000
    Al24    Al   0.03168   0.84102   0.87418   1.000
    Al25    Al   0.53168   0.34102   0.87418   1.000
    Al26    Al   0.53168   0.84102   0.87418   1.000
    Al27    Al   0.48314   0.09845   0.83192   1.000
    Al28    Al   0.48314   0.59845   0.83192   1.000
    Al29    Al   0.98314   0.09845   0.83192   1.000
    Al30    Al   0.98314   0.59845   0.83192   1.000
    Al31    Al   0.44068   0.31786   0.58021   1.000
    Al32    Al   0.46836   0.15899   0.12580   1.000
    Al33    Al   0.44068   0.81785   0.58021   1.000
    Al34    Al   0.94068   0.31786   0.58021   1.000
    Al35    Al   0.94069   0.81785   0.58021   1.000
    Al36    Al   0.15919   0.46834   0.62597   1.000
    Al37    Al   0.15919   0.96833   0.62597   1.000
    Al38    Al   0.65919   0.46834   0.62597   1.000
    Al39    Al   0.65919   0.96833   0.62597   1.000
    Al40    Al   0.40139   0.01685   0.66820   1.000
    Al41    Al   0.40139   0.51684   0.66820   1.000
    Al42    Al   0.90139   0.01685   0.66820   1.000
    Al43    Al   0.90140   0.51684   0.66820   1.000
    Al44    Al   0.18230   0.05946   0.91961   1.000
    Al45    Al   0.18230   0.55946   0.91961   1.000
    Al46    Al   0.68230   0.05946   0.91961   1.000
    Al47    Al   0.68230   0.55945   0.91961   1.000
    P48     P    0.15831   0.46846   0.12595   1.000
    P49     P    0.15831   0.96846   0.12595   1.000
    P50     P    0.65831   0.46846   0.12595   1.000
    P51     P    0.65831   0.96846   0.12595   1.000
    P52     P    0.43877   0.32267   0.07779   1.000
    P53     P    0.43878   0.82266   0.07779   1.000
    P54     P    0.93878   0.32267   0.07779   1.000
    P55     P    0.93878   0.82266   0.07779   1.000
    P56     P    0.47928   0.10508   0.33034   1.000
    P57     P    0.47929   0.60507   0.33034   1.000
    P58     P    0.97929   0.10508   0.33034   1.000
    P59     P    0.97929   0.60507   0.33034   1.000
    P60     P    0.03162   0.34179   0.37403   1.000
    P61     P    0.03162   0.84178   0.37403   1.000
    P62     P    0.53162   0.34179   0.37403   1.000
    P63     P    0.53163   0.84178   0.37403   1.000
    P64     P    0.17773   0.06138   0.42173   1.000
    P65     P    0.17774   0.56137   0.42173   1.000
    P66     P    0.67774   0.06138   0.42173   1.000
    P67     P    0.67774   0.56137   0.42173   1.000
    P68     P    0.39483   0.02068   0.16977   1.000
    P69     P    0.39483   0.52068   0.16977   1.000
    P70     P    0.89483   0.02068   0.16977   1.000
    P71     P    0.89484   0.52068   0.16977   1.000
    P72     P    0.34172   0.03155   0.87404   1.000
    P73     P    0.34173   0.53154   0.87404   1.000
    P74     P    0.84173   0.03155   0.87404   1.000
    P75     P    0.84173   0.53154   0.87404   1.000
    P76     P    0.06126   0.17734   0.92220   1.000
    P77     P    0.06126   0.67734   0.92220   1.000
    P78     P    0.56126   0.17734   0.92220   1.000
    P79     P    0.56127   0.67734   0.92220   1.000
    P80     P    0.02074   0.39494   0.66965   1.000
    P81     P    0.02074   0.89493   0.66965   1.000
    P82     P    0.52074   0.39494   0.66965   1.000
    P83     P    0.52075   0.89493   0.66965   1.000
    P84     P    0.46841   0.15823   0.62597   1.000
    P85     P    0.46841   0.65822   0.62597   1.000
    P86     P    0.96841   0.15823   0.62597   1.000
    P87     P    0.96841   0.65822   0.62597   1.000
    P88     P    0.32229   0.43864   0.57826   1.000
    P89     P    0.32229   0.93864   0.57826   1.000
    P90     P    0.82229   0.43864   0.57826   1.000
    P91     P    0.82230   0.93864   0.57826   1.000
    P92     P    0.10520   0.47933   0.83022   1.000
    P93     P    0.10520   0.97932   0.83022   1.000
    P94     P    0.60520   0.47933   0.83022   1.000
    P95     P    0.60520   0.97932   0.83022   1.000
    O96     O    0.10588   0.41912   0.12130   1.000
    O97     O    0.10588   0.91911   0.12130   1.000
    O98     O    0.60588   0.41912   0.12130   1.000
    O99     O    0.60589   0.91912   0.12130   1.000
    O100    O    0.77158   0.57440   0.86898   1.000
    O101    O    0.37006   0.00107   0.78872   1.000
    O102    O    0.37007   0.50107   0.78872   1.000
    O103    O    0.87007   0.00108   0.78872   1.000
    O104    O    0.22846   0.42561   0.13100   1.000
    O105    O    0.22846   0.92560   0.13100   1.000
    O106    O    0.72846   0.42561   0.13100   1.000
    O107    O    0.72847   0.92560   0.13100   1.000
    O108    O    0.12997   0.49894   0.21127   1.000
    O109    O    0.12997   0.99893   0.21127   1.000
    O110    O    0.62997   0.49894   0.21127   1.000
    O111    O    0.62998   0.99893   0.21127   1.000
    O112    O    0.42729   0.24370   0.11335   1.000
    O113    O    0.42729   0.74369   0.11335   1.000
    O114    O    0.92729   0.24370   0.11335   1.000
    O115    O    0.92729   0.74369   0.11335   1.000
    O116    O    0.00229   0.13384   0.22437   1.000
    O117    O    0.00229   0.63383   0.22437   1.000
    O118    O    0.50229   0.13384   0.22437   1.000
    O119    O    0.50230   0.63383   0.22437   1.000
    O120    O    0.49592   0.34005   0.11807   1.000
    O121    O    0.49592   0.84004   0.11807   1.000
    O122    O    0.99592   0.34005   0.11807   1.000
    O123    O    0.99593   0.84004   0.11807   1.000
    O124    O    0.46179   0.34360   0.97121   1.000
    O125    O    0.46179   0.84359   0.97121   1.000
    O126    O    0.96179   0.34360   0.97121   1.000
    O127    O    0.96180   0.84359   0.97121   1.000
    O128    O    0.49442   0.15816   0.37772   1.000
    O129    O    0.49442   0.65816   0.37772   1.000
    O130    O    0.99442   0.15817   0.37772   1.000
    O131    O    0.99443   0.65816   0.37772   1.000
    O132    O    0.13372   0.00260   0.72422   1.000
    O133    O    0.13372   0.50259   0.72422   1.000
    O134    O    0.63372   0.00260   0.72422   1.000
    O135    O    0.63372   0.50259   0.72422   1.000
    O136    O    0.33997   0.49597   0.61798   1.000
    O137    O    0.16925   0.03095   0.04013   1.000
    O138    O    0.16925   0.53094   0.04013   1.000
    O139    O    0.66925   0.03095   0.04013   1.000
    O140    O    0.66925   0.53094   0.04013   1.000
    O141    O    0.36864   0.36265   0.10996   1.000
    O142    O    0.36865   0.86264   0.10996   1.000
    O143    O    0.86864   0.36265   0.10996   1.000
    O144    O    0.86865   0.86264   0.10996   1.000
    O145    O    0.01965   0.03380   0.35853   1.000
    O146    O    0.01965   0.53380   0.35853   1.000
    O147    O    0.51965   0.03380   0.35853   1.000
    O148    O    0.51966   0.53380   0.35853   1.000
    O149    O    0.39991   0.09459   0.36247   1.000
    O150    O    0.39991   0.59459   0.36247   1.000
    O151    O    0.89991   0.09459   0.36247   1.000
    O152    O    0.89991   0.59459   0.36247   1.000
    O153    O    0.08109   0.39410   0.37865   1.000
    O154    O    0.08109   0.89410   0.37865   1.000
    O155    O    0.58109   0.39410   0.37865   1.000
    O156    O    0.58109   0.89410   0.37865   1.000
    O157    O    0.07427   0.27150   0.36925   1.000
    O158    O    0.07427   0.77149   0.36925   1.000
    O159    O    0.57427   0.27150   0.36925   1.000
    O160    O    0.57427   0.77149   0.36925   1.000
    O161    O    0.00122   0.37021   0.28859   1.000
    O162    O    0.00123   0.87020   0.28859   1.000
    O163    O    0.50123   0.37021   0.28800   1.000
    O164    O    0.50123   0.87020   0.28800   1.000
    O165    O    0.25649   0.07345   0.38494   1.000
    O166    O    0.25649   0.57344   0.38494   1.000
    O167    O    0.75649   0.07345   0.38494   1.000
    O168    O    0.75649   0.57344   0.38494   1.000
    O169    O    0.36631   0.49742   0.27577   1.000
    O170    O    0.36631   0.99742   0.27577   1.000
    O171    O    0.86631   0.49742   0.27577   1.000
    O172    O    0.86631   0.99742   0.27577   1.000
    O173    O    0.16006   0.00405   0.38201   1.000
    O174    O    0.16006   0.50405   0.38201   1.000
    O175    O    0.66006   0.00405   0.38201   1.000
    O176    O    0.66007   0.50405   0.38201   1.000
    O177    O    0.15797   0.03819   0.52830   1.000
    O178    O    0.15797   0.53818   0.52830   1.000
    O179    O    0.65797   0.03819   0.52830   1.000
    O180    O    0.65798   0.53818   0.52830   1.000
    O181    O    0.34177   0.00551   0.12236   1.000
    O182    O    0.34177   0.50550   0.12236   1.000
    O183    O    0.84177   0.00551   0.12236   1.000
    O184    O    0.84178   0.50550   0.12236   1.000
    O185    O    0.46912   0.33103   0.45970   1.000
    O186    O    0.46913   0.83103   0.45970   1.000
    O187    O    0.96913   0.33103   0.45970   1.000
    O188    O    0.96913   0.83103   0.45970   1.000
    O189    O    0.13717   0.13133   0.39018   1.000
    O190    O    0.13717   0.63132   0.39018   1.000
    O191    O    0.63718   0.13133   0.39018   1.000
    O192    O    0.63718   0.63132   0.39018   1.000
    O193    O    0.46614   0.48052   0.14138   1.000
    O194    O    0.46614   0.98051   0.14138   1.000
    O195    O    0.96614   0.48052   0.14138   1.000
    O196    O    0.96615   0.98051   0.14138   1.000
    O197    O    0.40507   0.10017   0.13780   1.000
    O198    O    0.40507   0.60017   0.13780   1.000
    O199    O    0.90507   0.10017   0.13785   1.000
    O200    O    0.90507   0.60017   0.13785   1.000
    O201    O    0.39415   0.08089   0.87870   1.000
    O202    O    0.39415   0.58088   0.87870   1.000
    O203    O    0.89415   0.08089   0.87870   1.000
    O204    O    0.89415   0.58088   0.87870   1.000
    O205    O    0.27157   0.07440   0.86898   1.000
    O206    O    0.27157   0.57440   0.86898   1.000
    O207    O    0.77157   0.07440   0.86898   1.000
    O208    O    0.87007   0.50107   0.78872   1.000
    O209    O    0.07274   0.25631   0.88662   1.000
    O210    O    0.07274   0.75631   0.88662   1.000
    O211    O    0.57274   0.25631   0.88662   1.000
    O212    O    0.57275   0.75631   0.88662   1.000
    O213    O    0.49773   0.36618   0.77563   1.000
    O214    O    0.49773   0.86618   0.77563   1.000
    O215    O    0.99773   0.36618   0.77563   1.000
    O216    O    0.99773   0.86618   0.77563   1.000
    O217    O    0.00411   0.15995   0.88194   1.000
    O218    O    0.00411   0.65995   0.88194   1.000
    O219    O    0.50411   0.15995   0.88194   1.000
    O220    O    0.50412   0.65994   0.88194   1.000
    O221    O    0.03825   0.15643   0.02878   1.000
    O222    O    0.03825   0.65642   0.02878   1.000
    O223    O    0.53825   0.15643   0.02878   1.000
    O224    O    0.53826   0.65642   0.02878   1.000
    O225    O    0.00560   0.34184   0.62228   1.000
    O226    O    0.00560   0.84184   0.62228   1.000
    O227    O    0.50560   0.34184   0.62228   1.000
    O228    O    0.50561   0.84184   0.62228   1.000
    O229    O    0.33077   0.46906   0.95986   1.000
    O230    O    0.33078   0.96905   0.95986   1.000
    O231    O    0.83078   0.46906   0.95986   1.000
    O232    O    0.83078   0.96905   0.95986   1.000
    O233    O    0.13139   0.13737   0.89000   1.000
    O234    O    0.13140   0.63736   0.89000   1.000
    O235    O    0.63140   0.13737   0.89003   1.000
    O236    O    0.63140   0.63736   0.89003   1.000
    O237    O    0.48038   0.46621   0.64145   1.000
    O238    O    0.48038   0.96621   0.64145   1.000
    O239    O    0.98038   0.46621   0.64145   1.000
    O240    O    0.98038   0.96621   0.64145   1.000
    O241    O    0.10012   0.40542   0.63752   1.000
    O242    O    0.10012   0.90541   0.63752   1.000
    O243    O    0.60012   0.40542   0.63752   1.000
    O244    O    0.60012   0.90541   0.63752   1.000
    O245    O    0.41894   0.10591   0.62135   1.000
    O246    O    0.41894   0.60591   0.62135   1.000
    O247    O    0.91894   0.10591   0.62130   1.000
    O248    O    0.91895   0.60591   0.62130   1.000
    O249    O    0.42576   0.22852   0.63075   1.000
    O250    O    0.42576   0.72851   0.63075   1.000
    O251    O    0.92576   0.22852   0.63075   1.000
    O252    O    0.92576   0.72851   0.63075   1.000
    O253    O    0.49880   0.12981   0.71140   1.000
    O254    O    0.49881   0.62980   0.71140   1.000
    O255    O    0.99880   0.12981   0.71140   1.000
    O256    O    0.99881   0.62980   0.71140   1.000
    O257    O    0.24354   0.42657   0.61500   1.000
    O258    O    0.24354   0.92657   0.61500   1.000
    O259    O    0.74354   0.42657   0.61500   1.000
    O260    O    0.74354   0.92657   0.61500   1.000
    O261    O    0.33997   0.99596   0.61798   1.000
    O262    O    0.83997   0.49597   0.61798   1.000
    O263    O    0.83997   0.99596   0.61798   1.000
    O264    O    0.34205   0.46183   0.47166   1.000
    O265    O    0.34205   0.96182   0.47166   1.000
    O266    O    0.84205   0.46183   0.47166   1.000
    O267    O    0.84206   0.96182   0.47166   1.000
    O268    O    0.15825   0.49450   0.87764   1.000
    O269    O    0.15826   0.99449   0.87764   1.000
    O270    O    0.65825   0.49450   0.87764   1.000
    O271    O    0.65826   0.99449   0.87764   1.000
    O272    O    0.03090   0.16898   0.54030   1.000
    O273    O    0.03090   0.66898   0.54030   1.000
    O274    O    0.53090   0.16898   0.54030   1.000
    O275    O    0.53091   0.66898   0.54030   1.000
    O276    O    0.36285   0.36869   0.60981   1.000
    O277    O    0.36286   0.86869   0.60981   1.000
    O278    O    0.86286   0.36869   0.60981   1.000
    O279    O    0.86286   0.86869   0.60981   1.000
    O280    O    0.03388   0.01948   0.85861   1.000
    O281    O    0.03388   0.51948   0.85861   1.000
    O282    O    0.53388   0.01948   0.85861   1.000
    O283    O    0.53389   0.51948   0.85861   1.000
    O284    O    0.09497   0.39983   0.86213   1.000
    O285    O    0.09498   0.89983   0.86213   1.000
    O286    O    0.59498   0.39983   0.86213   1.000
    O287    O    0.59498   0.89983   0.86213   1.000
loop_
    _geom_bond_atom_site_label_1
    _geom_bond_atom_site_label_2
    _geom_bond_distance
    _geom_bond_site_symmetry_2
    _ccdc_geom_bond_type
    O224   Al0       1.75628      .   S
    O224   P79       1.54250  1_554   S
    O223   Al32      1.75628      .   S
    O223   P78       1.54250  1_554   S
    O222   Al2       1.75622  1_455   S
    O222   P77       1.54250  1_554   S
    O221   Al1       1.75622  1_455   S
    O221   P76       1.54250  1_554   S
    O140   P50       1.53969      .   S
    O140   Al47      1.75510  1_554   S
    O139   P51       1.53981  1_545   S
    O139   Al46      1.75510  1_554   S
    O138   P48       1.53969      .   S
    O138   Al45      1.75510  1_554   S
    O137   P49       1.53981  1_545   S
    O137   Al44      1.75510  1_554   S
    P53    O142      1.54010      .   S
    P53    O113      1.53778      .   S
    P53    O121      1.54795      .   S
    P53    O125      1.54251  1_554   S
    P55    O144      1.54010      .   S
    P55    O115      1.53778      .   S
    P55    O123      1.54794      .   S
    P55    O127      1.54251  1_554   S
    P54    O143      1.54011      .   S
    P54    O114      1.53778      .   S
    P54    O122      1.54792      .   S
    P54    O126      1.54251  1_554   S
    P52    O141      1.54010      .   S
    P52    O112      1.53778      .   S
    P52    O120      1.54793      .   S
    P52    O124      1.54251  1_554   S
    Al19   O141      1.75653      .   S
    Al19   O182      1.75898      .   S
    Al19   O104      1.76039      .   S
    Al19   O229      1.75512  1_554   S
    Al20   O142      1.75652      .   S
    Al20   O181      1.75909  1_565   S
    Al20   O105      1.76039      .   S
    Al20   O230      1.75512  1_554   S
    Al21   O143      1.75652      .   S
    Al21   O184      1.75898      .   S
    Al21   O106      1.76039      .   S
    Al21   O231      1.75512  1_554   S
    Al22   O144      1.75652      .   S
    Al22   O183      1.75907  1_565   S
    Al22   O107      1.76039      .   S
    Al22   O232      1.75512  1_554   S
    O113   Al0       1.75607      .   S
    O112   Al32      1.75607      .   S
    O114   Al1       1.75606      .   S
    O115   Al2       1.75607      .   S
    O120   Al5       1.75580      .   S
    O121   Al6       1.75580      .   S
    O122   Al3       1.75577  1_655   S
    O123   Al4       1.75576  1_655   S
    O96    P48       1.54473      .   S
    O96    Al3       1.75912      .   S
    O97    P49       1.54473      .   S
    O97    Al4       1.75913      .   S
    O98    P50       1.54473      .   S
    O98    Al5       1.75913      .   S
    O99    P51       1.54475      .   S
    O99    Al6       1.75912      .   S
    O184   P71       1.53645      .   S
    O181   P68       1.53646      .   S
    O183   P70       1.53647      .   S
    O182   P69       1.53645      .   S
    Al0    O198      1.76225      .   S
    Al0    O119      1.75933      .   S
    Al1    O199      1.76204      .   S
    Al1    O116      1.75926  1_655   S
    Al2    O200      1.76204      .   S
    Al2    O117      1.75926  1_655   S
    Al32   O197      1.76224      .   S
    Al32   O118      1.75933      .   S
    P51    O107      1.54505      .   S
    P51    O111      1.54183      .   S
    P48    O104      1.54505      .   S
    P48    O108      1.54182      .   S
    P49    O105      1.54506      .   S
    P49    O109      1.54182      .   S
    P50    O106      1.54505      .   S
    P50    O110      1.54183      .   S
    O197   P68       1.54176      .   S
    O198   P69       1.54175      .   S
    O200   P71       1.54174      .   S
    O199   P70       1.54174      .   S
    O196   Al4       1.76321  1_655   S
    O196   P70       1.54814  1_565   S
    O195   Al3       1.76323  1_655   S
    O195   P71       1.54793      .   S
    O194   Al6       1.76328      .   S
    O194   P68       1.54814  1_565   S
    O193   Al5       1.76328      .   S
    O193   P69       1.54793      .   S
    Al6    O164      1.74619      .   S
    Al5    O163      1.74619      .   S
    Al4    O162      1.75461      .   S
    Al3    O161      1.75460      .   S
    P68    O170      1.54469  1_545   S
    P69    O169      1.54470      .   S
    P70    O172      1.54469  1_545   S
    P71    O171      1.54470      .   S
    O108   Al15      1.75502      .   S
    O109   Al16      1.75502      .   S
    O110   Al17      1.75502      .   S
    O111   Al18      1.75502      .   S
    O116   P58       1.54440  1_455   S
    O117   P59       1.54440  1_455   S
    O118   P56       1.54441      .   S
    O119   P57       1.54441      .   S
    O169   Al12      1.75959      .   S
    O172   Al13      1.75971  1_565   S
    O171   Al14      1.75959      .   S
    O170   Al11      1.75971  1_565   S
    O163   P62       1.54947      .   S
    O164   P63       1.54947      .   S
    O161   P60       1.54154      .   S
    O162   P61       1.54153      .   S
    P58    O145      1.54782  1_655   S
    P58    O151      1.54160      .   S
    P58    O130      1.53641      .   S
    P57    O148      1.54787      .   S
    P57    O150      1.54160      .   S
    P57    O129      1.53640      .   S
    P56    O147      1.54788      .   S
    P56    O149      1.54160      .   S
    P56    O128      1.53639      .   S
    P59    O146      1.54782  1_655   S
    P59    O152      1.54160      .   S
    P59    O131      1.53638      .   S
    Al18   O147      1.76360  1_565   S
    Al18   O156      1.75915      .   S
    Al18   O175      1.75584  1_565   S
    Al17   O148      1.76336      .   S
    Al17   O155      1.75915      .   S
    Al17   O176      1.75586      .   S
    Al16   O145      1.76360  1_565   S
    Al16   O154      1.75915      .   S
    Al16   O173      1.75584  1_565   S
    Al15   O146      1.76336      .   S
    Al15   O153      1.75915      .   S
    Al15   O174      1.75586      .   S
    O151   Al13      1.76199      .   S
    O152   Al14      1.76202      .   S
    O150   Al12      1.76202      .   S
    O149   Al11      1.76199      .   S
    O157   P60       1.54478      .   S
    O157   Al7       1.75996      .   S
    O158   P61       1.54479      .   S
    O158   Al8       1.75996      .   S
    O159   P62       1.54479      .   S
    O159   Al9       1.75996      .   S
    O160   P63       1.54478      .   S
    O160   Al10      1.75996      .   S
    Al11   O165      1.75653      .   S
    Al11   O265      1.75618  1_545   S
    Al12   O166      1.75654      .   S
    Al12   O264      1.75604      .   S
    Al13   O167      1.75653      .   S
    Al13   O267      1.75618  1_545   S
    Al14   O168      1.75654      .   S
    Al14   O266      1.75604      .   S
    P60    O153      1.54468      .   S
    P60    O187      1.53974  1_455   S
    P61    O154      1.54468      .   S
    P61    O188      1.53973  1_455   S
    P62    O155      1.54469      .   S
    P62    O185      1.53980      .   S
    P63    O156      1.54468      .   S
    P63    O186      1.53980      .   S
    O129   Al10      1.75876      .   S
    O131   Al8       1.75866  1_655   S
    O130   Al7       1.75863  1_655   S
    O128   Al9       1.75874      .   S
    O173   P64       1.54787      .   S
    O174   P65       1.54785      .   S
    O175   P66       1.54787      .   S
    O176   P67       1.54785      .   S
    O168   P67       1.53793      .   S
    O167   P66       1.53792      .   S
    O166   P65       1.53793      .   S
    O165   P64       1.53792      .   S
    O189   Al7       1.75579      .   S
    O189   P64       1.53983      .   S
    O190   Al8       1.75578      .   S
    O190   P65       1.53984      .   S
    O191   Al9       1.75579      .   S
    O191   P66       1.53983      .   S
    O192   Al10      1.75578      .   S
    O192   P67       1.53984      .   S
    Al7    O272      1.75520      .   S
    Al8    O273      1.75520      .   S
    Al10   O275      1.75520      .   S
    Al9    O274      1.75520      .   S
    P64    O177      1.54221      .   S
    P65    O178      1.54221      .   S
    P66    O179      1.54221      .   S
    P67    O180      1.54221      .   S
    O188   Al35      1.75505      .   S
    O185   Al31      1.75506      .   S
    O186   Al33      1.75505      .   S
    O187   Al34      1.75506      .   S
    O267   P91       1.54264      .   S
    O266   P90       1.54264      .   S
    O265   P89       1.54264      .   S
    O264   P88       1.54264      .   S
    O178   Al36      1.75634      .   S
    O179   Al39      1.75649  1_545   S
    O180   Al38      1.75636      .   S
    O177   Al37      1.75650  1_545   S
    O273   P87       1.53973  1_455   S
    O274   P84       1.53980      .   S
    O275   P85       1.53980      .   S
    O272   P86       1.53973  1_455   S
    P89    O277      1.53983      .   S
    P89    O258      1.53788      .   S
    P89    O261      1.54791      .   S
    P91    O279      1.53983      .   S
    P91    O260      1.53788      .   S
    P91    O263      1.54790      .   S
    P90    O278      1.53984      .   S
    P90    O259      1.53788      .   S
    P90    O262      1.54791      .   S
    P88    O276      1.53984      .   S
    P88    O257      1.53788      .   S
    P88    O136      1.54791      .   S
    Al35   O279      1.75580      .   S
    Al35   O226      1.75867  1_655   S
    Al35   O252      1.75996      .   S
    Al34   O278      1.75579      .   S
    Al34   O225      1.75867  1_655   S
    Al34   O251      1.75998      .   S
    Al33   O277      1.75580      .   S
    Al33   O228      1.75878      .   S
    Al33   O250      1.75996      .   S
    Al31   O276      1.75579      .   S
    Al31   O227      1.75877      .   S
    Al31   O249      1.75998      .   S
    O257   Al36      1.75650      .   S
    O260   Al39      1.75650      .   S
    O259   Al38      1.75650      .   S
    O258   Al37      1.75649      .   S
    O136   Al41      1.75582      .   S
    O261   Al40      1.75578  1_565   S
    O262   Al43      1.75582      .   S
    O263   Al42      1.75580  1_565   S
    O247   P86       1.54497      .   S
    O247   Al42      1.75921      .   S
    O248   P87       1.54499      .   S
    O248   Al43      1.75918      .   S
    O245   P84       1.54466      .   S
    O245   Al40      1.75914      .   S
    O246   P85       1.54468      .   S
    O246   Al41      1.75912      .   S
    O227   P82       1.53641      .   S
    O226   P81       1.53641      .   S
    O225   P80       1.53641      .   S
    O228   P83       1.53641      .   S
    Al38   O243      1.76207      .   S
    Al38   O135      1.75961      .   S
    P87    O252      1.54480      .   S
    P87    O256      1.54141      .   S
    P86    O251      1.54480      .   S
    P86    O255      1.54139      .   S
    P85    O250      1.54480      .   S
    P85    O254      1.54142      .   S
    P84    O249      1.54480      .   S
    P84    O253      1.54141      .   S
    Al39   O244      1.76207      .   S
    Al39   O134      1.75973  1_565   S
    Al36   O241      1.76207      .   S
    Al36   O133      1.75961      .   S
    Al37   O242      1.76207      .   S
    Al37   O132      1.75974  1_565   S
    O241   P80       1.54161      .   S
    O242   P81       1.54161      .   S
    O243   P82       1.54161      .   S
    O244   P83       1.54162      .   S
    O237   Al41      1.76338      .   S
    O237   P82       1.54787      .   S
    O240   Al42      1.76360  1_565   S
    O240   P81       1.54781  1_655   S
    O239   Al43      1.76338      .   S
    O239   P80       1.54781  1_655   S
    O238   Al40      1.76360  1_565   S
    O238   P83       1.54786      .   S
    Al43   O208      1.75500      .   S
    Al42   O103      1.75500      .   S
    Al41   O102      1.75500      .   S
    Al40   O101      1.75500      .   S
    P81    O216      1.54452  1_455   S
    P82    O213      1.54453      .   S
    P83    O214      1.54453      .   S
    P80    O215      1.54453  1_455   S
    O254   Al28      1.75477      .   S
    O256   Al30      1.75477      .   S
    O255   Al29      1.75477      .   S
    O253   Al27      1.75477      .   S
    O135   P94       1.54471      .   S
    O134   P95       1.54470  1_545   S
    O133   P92       1.54471      .   S
    O132   P93       1.54470  1_545   S
    O214   Al26      1.75920      .   S
    O215   Al23      1.75914  1_655   S
    O216   Al24      1.75913  1_655   S
    O213   Al25      1.75921      .   S
    O208   P75       1.54178      .   S
    O103   P74       1.54179      .   S
    O102   P73       1.54179      .   S
    O101   P72       1.54179      .   S
    P94    O283      1.54794      .   S
    P94    O286      1.54173      .   S
    P94    O270      1.53643      .   S
    P95    O282      1.54812  1_565   S
    P95    O287      1.54175      .   S
    P95    O271      1.53645      .   S
    P93    O280      1.54812  1_565   S
    P93    O285      1.54175      .   S
    P93    O269      1.53645      .   S
    P92    O281      1.54794      .   S
    P92    O284      1.54173      .   S
    P92    O268      1.53643      .   S
    Al30   O281      1.76323  1_655   S
    Al30   O204      1.75914      .   S
    Al30   O218      1.75577  1_655   S
    Al29   O280      1.76324  1_655   S
    Al29   O203      1.75912      .   S
    Al29   O217      1.75577  1_655   S
    Al28   O283      1.76327      .   S
    Al28   O202      1.75914      .   S
    Al28   O220      1.75582      .   S
    Al27   O282      1.76328      .   S
    Al27   O201      1.75912      .   S
    Al27   O219      1.75582      .   S
    O287   Al26      1.76207      .   S
    O286   Al25      1.76207      .   S
    O285   Al24      1.76205      .   S
    O284   Al23      1.76207      .   S
    O100   P75       1.54507      .   S
    O100   Al47      1.76041      .   S
    O207   P74       1.54506      .   S
    O207   Al46      1.76041      .   S
    O206   P73       1.54507      .   S
    O206   Al45      1.76041      .   S
    O205   P72       1.54507      .   S
    O205   Al44      1.76041      .   S
    P75    O204      1.54473      .   S
    P75    O231      1.53970      .   S
    P74    O203      1.54473      .   S
    P74    O232      1.53983  1_545   S
    P73    O202      1.54472      .   S
    P73    O229      1.53970      .   S
    P72    O201      1.54475      .   S
    P72    O230      1.53982  1_545   S
    Al23   O209      1.75606      .   S
    Al23   O126      1.75625  1_455   S
    Al24   O210      1.75606      .   S
    Al24   O127      1.75624  1_455   S
    Al25   O211      1.75606      .   S
    Al25   O124      1.75631      .   S
    Al26   O212      1.75605      .   S
    Al26   O125      1.75630      .   S
    O268   Al45      1.75900      .   S
    O271   Al46      1.75910  1_565   S
    O270   Al47      1.75898      .   S
    O269   Al44      1.75910  1_565   S
    O218   P77       1.54789      .   S
    O219   P78       1.54790      .   S
    O220   P79       1.54790      .   S
    O217   P76       1.54791      .   S
    O209   P76       1.53779      .   S
    O210   P77       1.53779      .   S
    O211   P78       1.53779      .   S
    O212   P79       1.53779      .   S
    O234   Al45      1.75659      .   S
    O234   P77       1.54020      .   S
    O233   Al44      1.75659      .   S
    O233   P76       1.54019      .   S
    O235   Al46      1.75651      .   S
    O235   P78       1.54010      .   S
    O236   Al47      1.75652      .   S
    O236   P79       1.54010      .   S
