# CIF file generated by openbabel 2.4.90, see http://openbabel.sf.net
data_I
_chemical_name_common ''
_cell_length_a 19.848
_cell_length_b 19.84
_cell_length_c 15.506
_cell_angle_alpha 74.229
_cell_angle_beta 74.301
_cell_angle_gamma 82.636
_space_group_name_H-M_alt 'P 1'
_space_group_name_Hall 'P 1'
loop_
    _symmetry_equiv_pos_as_xyz
    x,y,z
loop_
    _atom_site_label
    _atom_site_type_symbol
    _atom_site_fract_x
    _atom_site_fract_y
    _atom_site_fract_z
    _atom_site_occupancy
    Zr0     Zr   0.46836   0.15899   0.12580   1.000
    Zr1     Zr   0.46836   0.65898   0.12580   1.000
    Zr2     Zr   0.96836   0.15899   0.12580   1.000
    Zr3     Zr   0.96836   0.65898   0.12580   1.000
    Zr4     Zr   0.01689   0.40155   0.16808   1.000
    Zr5     Zr   0.01689   0.90155   0.16808   1.000
    Zr6     Zr   0.51689   0.40155   0.16808   1.000
    Zr7     Zr   0.51690   0.90155   0.16808   1.000
    Zr8     Zr   0.05934   0.18216   0.41978   1.000
    Zr9     Zr   0.05934   0.68215   0.41978   1.000
    Zr10    Zr   0.55934   0.18216   0.41978   1.000
    Zr11    Zr   0.55935   0.68215   0.41978   1.000
    Zr12    Zr   0.34084   0.03168   0.37402   1.000
    Zr13    Zr   0.34084   0.53167   0.37402   1.000
    Zr14    Zr   0.84084   0.03168   0.37402   1.000
    Zr15    Zr   0.84084   0.53167   0.37402   1.000
    Zr16    Zr   0.09864   0.48317   0.33179   1.000
    Zr17    Zr   0.09864   0.98316   0.33179   1.000
    Zr18    Zr   0.59864   0.48317   0.33179   1.000
    Zr19    Zr   0.59864   0.98316   0.33179   1.000
    Zr20    Zr   0.31773   0.44055   0.08038   1.000
    Zr21    Zr   0.31773   0.94054   0.08038   1.000
    Zr22    Zr   0.81773   0.44055   0.08038   1.000
    Zr23    Zr   0.81774   0.94054   0.08038   1.000
    Zr24    Zr   0.03168   0.34102   0.87418   1.000
    Zr25    Zr   0.03168   0.84102   0.87418   1.000
    Zr26    Zr   0.53168   0.34102   0.87418   1.000
    Zr27    Zr   0.53168   0.84102   0.87418   1.000
    Zr28    Zr   0.48314   0.09845   0.83192   1.000
    Zr29    Zr   0.48314   0.59845   0.83192   1.000
    Zr30    Zr   0.98314   0.09845   0.83192   1.000
    Zr31    Zr   0.98314   0.59845   0.83192   1.000
    Zr32    Zr   0.44068   0.31786   0.58021   1.000
    Zr33    Zr   0.44068   0.81785   0.58021   1.000
    Zr34    Zr   0.94068   0.31786   0.58021   1.000
    Zr35    Zr   0.94069   0.81785   0.58021   1.000
    Zr36    Zr   0.15919   0.46834   0.62597   1.000
    Zr37    Zr   0.15919   0.96833   0.62597   1.000
    Zr38    Zr   0.65919   0.46834   0.62597   1.000
    Zr39    Zr   0.65919   0.96833   0.62597   1.000
    Zr40    Zr   0.40139   0.01685   0.66820   1.000
    Zr41    Zr   0.40139   0.51684   0.66820   1.000
    Zr42    Zr   0.90139   0.01685   0.66820   1.000
    Zr43    Zr   0.90140   0.51684   0.66820   1.000
    Zr44    Zr   0.18230   0.05946   0.91961   1.000
    Zr45    Zr   0.18230   0.55946   0.91961   1.000
    Zr46    Zr   0.68230   0.05946   0.91961   1.000
    Zr47    Zr   0.68230   0.55945   0.91961   1.000
    N48     N    0.82229   0.43864   0.57826   1.000
    O49     O    0.72245   0.43702   0.61774   1.000
    O50     O    0.85533   0.50119   0.63053   1.000
    O51     O    0.84175   0.47929   0.44725   1.000
    O52     O    0.88231   0.35598   0.60241   1.000
    N53     N    0.32229   0.93864   0.57826   1.000
    O54     O    0.35533   0.00118   0.63053   1.000
    O55     O    0.22245   0.93701   0.61774   1.000
    O56     O    0.34175   0.97929   0.44725   1.000
    O57     O    0.38231   0.85598   0.60241   1.000
    N58     N    0.32229   0.43864   0.57826   1.000
    O59     O    0.38231   0.35598   0.60241   1.000
    O60     O    0.35532   0.50119   0.63053   1.000
    O61     O    0.34175   0.47929   0.44725   1.000
    O62     O    0.22245   0.43702   0.61774   1.000
    N63     N    0.96841   0.65822   0.62597   1.000
    O64     O    0.03801   0.67227   0.51017   1.000
    O65     O    0.99489   0.62197   0.74153   1.000
    O66     O    0.92949   0.75085   0.61811   1.000
    O67     O    0.91456   0.58364   0.63303   1.000
    N68     N    0.46841   0.15823   0.62597   1.000
    O69     O    0.53801   0.17228   0.51017   1.000
    O70     O    0.42949   0.25085   0.61811   1.000
    O71     O    0.49489   0.12197   0.74153   1.000
    O72     O    0.41455   0.08365   0.63306   1.000
    N73     N    0.84173   0.03155   0.87404   1.000
    O74     O    0.82752   0.96193   0.98999   1.000
    O75     O    0.87790   0.00502   0.75859   1.000
    O76     O    0.91640   0.08528   0.86701   1.000
    O77     O    0.74925   0.07067   0.88164   1.000
    N78     N    0.82230   0.93864   0.57826   1.000
    O79     O    0.72246   0.93701   0.61774   1.000
    O80     O    0.84175   0.97929   0.44725   1.000
    O81     O    0.85533   0.00118   0.63053   1.000
    O82     O    0.88232   0.85598   0.60241   1.000
    N83     N    0.47929   0.60507   0.33034   1.000
    O84     O    0.38514   0.57886   0.36536   1.000
    O85     O    0.49381   0.64012   0.19973   1.000
    O86     O    0.53940   0.52114   0.35184   1.000
    O87     O    0.51065   0.66416   0.38823   1.000
    N88     N    0.34173   0.53154   0.87404   1.000
    O89     O    0.32751   0.46193   0.98999   1.000
    O90     O    0.37790   0.50501   0.75859   1.000
    O91     O    0.24925   0.57066   0.88164   1.000
    O92     O    0.41640   0.58527   0.86701   1.000
    N93     N    0.89483   0.02068   0.16977   1.000
    O94     O    0.92089   0.11488   0.13484   1.000
    O95     O    0.85995   0.00598   0.30033   1.000
    O96     O    0.83576   0.98927   0.11186   1.000
    O97     O    0.97883   0.96077   0.14805   1.000
    N98     N    0.02074   0.39494   0.66965   1.000
    O99     O    0.11488   0.42115   0.63463   1.000
    O100    O    0.96063   0.47887   0.64814   1.000
    O101    O    0.00622   0.35989   0.80027   1.000
    O102    O    0.98937   0.33585   0.61176   1.000
    N103    N    0.93878   0.82266   0.07779   1.000
    O104    O    0.85592   0.88212   0.10257   1.000
    O105    O    0.97927   0.84295   0.94695   1.000
    O106    O    0.00117   0.85542   0.13057   1.000
    O107    O    0.93756   0.72251   0.11646   1.000
    N108    N    0.06126   0.67734   0.92220   1.000
    O109    O    0.02078   0.65706   0.05303   1.000
    O110    O    0.14412   0.61788   0.89740   1.000
    O111    O    0.06248   0.77749   0.88351   1.000
    O112    O    0.99887   0.64457   0.86943   1.000
    N113    N    0.97929   0.10508   0.33034   1.000
    O114    O    0.88514   0.07886   0.36536   1.000
    O115    O    0.03940   0.02114   0.35184   1.000
    O116    O    0.99381   0.14012   0.19973   1.000
    O117    O    0.01065   0.16416   0.38823   1.000
    N118    N    0.39483   0.52068   0.16977   1.000
    O119    O    0.47883   0.46078   0.14805   1.000
    O120    O    0.42089   0.61487   0.13480   1.000
    O121    O    0.33576   0.48927   0.11186   1.000
    O122    O    0.35994   0.50598   0.30033   1.000
    N123    N    0.47928   0.10508   0.33034   1.000
    O124    O    0.53940   0.02114   0.35184   1.000
    O125    O    0.51065   0.16416   0.38823   1.000
    O126    O    0.38514   0.07886   0.36536   1.000
    O127    O    0.49381   0.14012   0.19973   1.000
    N128    N    0.34172   0.03155   0.87404   1.000
    O129    O    0.24925   0.07067   0.88164   1.000
    O130    O    0.37790   0.00502   0.75859   1.000
    O131    O    0.32752   0.96193   0.98999   1.000
    O132    O    0.41639   0.08528   0.86701   1.000
    N133    N    0.96841   0.15823   0.62597   1.000
    O134    O    0.92949   0.25085   0.61811   1.000
    O135    O    0.91455   0.08365   0.63303   1.000
    O136    O    0.03801   0.17228   0.51017   1.000
    O137    O    0.99489   0.12197   0.74153   1.000
    N138    N    0.65831   0.96846   0.12595   1.000
    O139    O    0.75078   0.92934   0.11834   1.000
    O140    O    0.58364   0.91472   0.13300   1.000
    O141    O    0.67251   0.03808   0.01000   1.000
    O142    O    0.62214   0.99499   0.24140   1.000
    N143    N    0.17773   0.06138   0.42173   1.000
    O144    O    0.14470   0.99883   0.36945   1.000
    O145    O    0.15827   0.02072   0.55272   1.000
    O146    O    0.11771   0.14404   0.39758   1.000
    O147    O    0.27758   0.06301   0.38221   1.000
    N148    N    0.10520   0.47933   0.83022   1.000
    O149    O    0.07915   0.38513   0.86514   1.000
    O150    O    0.16426   0.51074   0.88813   1.000
    O151    O    0.14009   0.49403   0.69966   1.000
    O152    O    0.02120   0.53922   0.85194   1.000
    N153    N    0.53162   0.34179   0.37403   1.000
    O154    O    0.50514   0.37804   0.25802   1.000
    O155    O    0.46201   0.32774   0.48983   1.000
    O156    O    0.58548   0.41637   0.36693   1.000
    O157    O    0.57054   0.24916   0.38188   1.000
    N158    N    0.06126   0.17734   0.92220   1.000
    O159    O    0.14412   0.11789   0.89740   1.000
    O160    O    0.06247   0.27749   0.88351   1.000
    O161    O    0.99887   0.14458   0.86943   1.000
    O162    O    0.02078   0.15707   0.05303   1.000
    N163    N    0.84173   0.53154   0.87404   1.000
    O164    O    0.91640   0.58527   0.86701   1.000
    O165    O    0.87790   0.50501   0.75859   1.000
    O166    O    0.82752   0.46193   0.98999   1.000
    O167    O    0.74926   0.57066   0.88164   1.000
    N168    N    0.15831   0.96846   0.12595   1.000
    O169    O    0.17251   0.03808   0.01000   1.000
    O170    O    0.08364   0.91472   0.13300   1.000
    O171    O    0.12214   0.99499   0.24140   1.000
    O172    O    0.25078   0.92934   0.11834   1.000
    N173    N    0.03162   0.34179   0.37403   1.000
    O174    O    0.96201   0.32774   0.48983   1.000
    O175    O    0.07053   0.24916   0.38188   1.000
    O176    O    0.00514   0.37804   0.25846   1.000
    O177    O    0.08547   0.41637   0.36693   1.000
    N178    N    0.43878   0.82266   0.07779   1.000
    O179    O    0.50117   0.85542   0.13057   1.000
    O180    O    0.47927   0.84295   0.94695   1.000
    O181    O    0.43756   0.72251   0.11646   1.000
    O182    O    0.35592   0.88212   0.10257   1.000
    N183    N    0.65831   0.46846   0.12595   1.000
    O184    O    0.62214   0.49500   0.24140   1.000
    O185    O    0.58364   0.41473   0.13300   1.000
    O186    O    0.75078   0.42934   0.11834   1.000
    O187    O    0.67252   0.53807   0.01000   1.000
    N188    N    0.39483   0.02068   0.16977   1.000
    O189    O    0.47883   0.96077   0.14805   1.000
    O190    O    0.33576   0.98927   0.11186   1.000
    O191    O    0.35994   0.00598   0.30033   1.000
    O192    O    0.42089   0.11488   0.13480   1.000
    N193    N    0.93878   0.32267   0.07779   1.000
    O194    O    0.00116   0.35542   0.13057   1.000
    O195    O    0.85592   0.38212   0.10257   1.000
    O196    O    0.93756   0.22252   0.11646   1.000
    O197    O    0.97926   0.34295   0.94695   1.000
    N198    N    0.43877   0.32267   0.07779   1.000
    O199    O    0.43755   0.22252   0.11646   1.000
    O200    O    0.47926   0.34295   0.94695   1.000
    O201    O    0.35591   0.38212   0.10257   1.000
    O202    O    0.50116   0.35542   0.13057   1.000
    N203    N    0.97929   0.60507   0.33034   1.000
    O204    O    0.88515   0.57886   0.36536   1.000
    O205    O    0.99381   0.64012   0.19973   1.000
    O206    O    0.03940   0.52114   0.35184   1.000
    O207    O    0.01066   0.66416   0.38823   1.000
    N208    N    0.89484   0.52068   0.16977   1.000
    O209    O    0.92089   0.61487   0.13484   1.000
    O210    O    0.85994   0.50598   0.30033   1.000
    O211    O    0.83576   0.48927   0.11186   1.000
    O212    O    0.97883   0.46078   0.14805   1.000
    N213    N    0.17774   0.56137   0.42173   1.000
    O214    O    0.15828   0.52072   0.55272   1.000
    O215    O    0.14471   0.49883   0.36945   1.000
    O216    O    0.27758   0.56300   0.38221   1.000
    O217    O    0.11772   0.64403   0.39758   1.000
    N218    N    0.67774   0.06138   0.42173   1.000
    O219    O    0.65828   0.02072   0.55272   1.000
    O220    O    0.61772   0.14404   0.39758   1.000
    O221    O    0.77758   0.06301   0.38221   1.000
    O222    O    0.64471   0.99883   0.36945   1.000
    N223    N    0.67774   0.56137   0.42173   1.000
    O224    O    0.65828   0.52072   0.55272   1.000
    O225    O    0.77758   0.56300   0.38221   1.000
    O226    O    0.61772   0.64403   0.39758   1.000
    O227    O    0.64471   0.49883   0.36945   1.000
    N228    N    0.60520   0.97932   0.83022   1.000
    O229    O    0.52120   0.03922   0.85194   1.000
    O230    O    0.57915   0.88512   0.86514   1.000
    O231    O    0.64009   0.99403   0.69966   1.000
    O232    O    0.66427   0.01073   0.88813   1.000
    N233    N    0.56126   0.17734   0.92220   1.000
    O234    O    0.49887   0.14457   0.86943   1.000
    O235    O    0.64412   0.11789   0.89742   1.000
    O236    O    0.56248   0.27749   0.88351   1.000
    O237    O    0.52078   0.15707   0.05303   1.000
    N238    N    0.15831   0.46846   0.12595   1.000
    O239    O    0.17251   0.53807   0.01000   1.000
    O240    O    0.12214   0.49499   0.24140   1.000
    O241    O    0.25078   0.42934   0.11834   1.000
    O242    O    0.08363   0.41473   0.13300   1.000
    N243    N    0.46841   0.65822   0.62597   1.000
    O244    O    0.41455   0.58364   0.63306   1.000
    O245    O    0.42949   0.75085   0.61811   1.000
    O246    O    0.53802   0.67227   0.51017   1.000
    O247    O    0.49489   0.62197   0.74153   1.000
    N248    N    0.10520   0.97932   0.83022   1.000
    O249    O    0.07915   0.88512   0.86514   1.000
    O250    O    0.14009   0.99403   0.69966   1.000
    O251    O    0.16427   0.01073   0.88813   1.000
    O252    O    0.02120   0.03922   0.85194   1.000
    N253    N    0.52074   0.39494   0.66965   1.000
    O254    O    0.46063   0.47887   0.64814   1.000
    O255    O    0.48937   0.33585   0.61176   1.000
    O256    O    0.61489   0.42115   0.63463   1.000
    O257    O    0.50622   0.35989   0.80027   1.000
    N258    N    0.56127   0.67734   0.92220   1.000
    O259    O    0.52078   0.65706   0.05303   1.000
    O260    O    0.49887   0.64457   0.86943   1.000
    O261    O    0.64413   0.61788   0.89742   1.000
    O262    O    0.56248   0.77749   0.88351   1.000
    N263    N    0.53163   0.84178   0.37403   1.000
    O264    O    0.57054   0.74916   0.38188   1.000
    O265    O    0.50515   0.87804   0.25802   1.000
    O266    O    0.58548   0.91636   0.36693   1.000
    O267    O    0.46202   0.82773   0.48983   1.000
    N268    N    0.03162   0.84178   0.37403   1.000
    O269    O    0.00514   0.87804   0.25846   1.000
    O270    O    0.96202   0.82773   0.48983   1.000
    O271    O    0.07054   0.74916   0.38188   1.000
    O272    O    0.08548   0.91636   0.36693   1.000
    N273    N    0.02074   0.89493   0.66965   1.000
    O274    O    0.96063   0.97887   0.64814   1.000
    O275    O    0.98937   0.83584   0.61176   1.000
    O276    O    0.00622   0.85989   0.80027   1.000
    O277    O    0.11489   0.92114   0.63463   1.000
    N278    N    0.60520   0.47933   0.83022   1.000
    O279    O    0.57915   0.38513   0.86514   1.000
    O280    O    0.64009   0.49403   0.69966   1.000
    O281    O    0.66427   0.51074   0.88813   1.000
    O282    O    0.52120   0.53922   0.85194   1.000
    N283    N    0.52075   0.89493   0.66965   1.000
    O284    O    0.61489   0.92114   0.63463   1.000
    O285    O    0.46063   0.97887   0.64814   1.000
    O286    O    0.50622   0.85989   0.80027   1.000
    O287    O    0.48938   0.83584   0.61176   1.000
loop_
    _geom_bond_atom_site_label_1
    _geom_bond_atom_site_label_2
    _geom_bond_distance
    _geom_bond_site_symmetry_2
    _ccdc_geom_bond_type
    N48    O49       1.91100      .   S
    Zr38   O49       1.31737      .   S
    N48    O50       1.91565      .   S
    Zr43   O50       1.31687      .   S
    N48    O51       1.92120      .   S
    Zr15   O51       1.31703      .   S
    N48    O52       1.91194      .   S
    Zr34   O52       1.31684      .   S
    N53    O54       1.91567  1_565   S
    Zr40   O54       1.31683      .   S
    N53    O55       1.91100      .   S
    Zr37   O55       1.31737      .   S
    N53    O56       1.92121      .   S
    Zr12   O56       1.31713  1_545   S
    N53    O57       1.91194      .   S
    Zr33   O57       1.31685      .   S
    N58    O59       1.91194      .   S
    Zr32   O59       1.31684      .   S
    N58    O60       1.91565      .   S
    Zr41   O60       1.31687      .   S
    N58    O61       1.92120      .   S
    Zr13   O61       1.31703      .   S
    N58    O62       1.91100      .   S
    Zr36   O62       1.31737      .   S
    N63    O64       1.92213  1_655   S
    Zr9    O64       1.31640      .   S
    N63    O65       1.92784      .   S
    Zr31   O65       1.31608      .   S
    N63    O66       1.88516      .   S
    Zr35   O66       1.31997      .   S
    N63    O67       1.89685      .   S
    Zr43   O67       1.31939      .   S
    N68    O69       1.92218      .   S
    Zr10   O69       1.31640      .   S
    N68    O70       1.88516      .   S
    Zr32   O70       1.31998      .   S
    N68    O71       1.92784      .   S
    Zr28   O71       1.31608      .   S
    N68    O72       1.89666      .   S
    Zr40   O72       1.31936      .   S
    N73    O74       1.92238  1_545   S
    Zr23   O74       1.31634  1_554   S
    N73    O75       1.92796      .   S
    Zr42   O75       1.31625      .   S
    N73    O76       1.89711      .   S
    Zr30   O76       1.31934      .   S
    N73    O77       1.88477      .   S
    Zr46   O77       1.32031      .   S
    N78    O79       1.91100      .   S
    Zr39   O79       1.31737      .   S
    N78    O80       1.92121      .   S
    Zr14   O80       1.31713  1_545   S
    N78    O81       1.91566  1_565   S
    Zr42   O81       1.31685      .   S
    N78    O82       1.91194      .   S
    Zr35   O82       1.31685      .   S
    N83    O84       1.89828      .   S
    Zr13   O84       1.32152      .   S
    N83    O85       1.90742      .   S
    Zr1    O85       1.31950      .   S
    N83    O86       1.92666      .   S
    Zr18   O86       1.32252      .   S
    N83    O87       1.90508      .   S
    Zr11   O87       1.31907      .   S
    N88    O89       1.92228      .   S
    Zr20   O89       1.31634  1_554   S
    N88    O90       1.92796      .   S
    Zr41   O90       1.31625      .   S
    N88    O91       1.88477      .   S
    Zr45   O91       1.32031      .   S
    N88    O92       1.89709      .   S
    Zr29   O92       1.31935      .   S
    N93    O94       1.89720      .   S
    Zr2    O94       1.32153      .   S
    N93    O95       1.90665      .   S
    Zr14   O95       1.31979      .   S
    N93    O96       1.90535  1_545   S
    Zr23   O96       1.31931      .   S
    N93    O97       1.92655  1_545   S
    Zr5    O97       1.32241  1_455   S
    N98    O99       1.89828      .   S
    Zr36   O99       1.32155      .   S
    N98    O100      1.92658  1_455   S
    Zr43   O100      1.32253      .   S
    N98    O101      1.90749      .   S
    Zr24   O101      1.31936      .   S
    N98    O102      1.90506  1_455   S
    Zr34   O102      1.31900      .   S
    N103   O104      1.91073      .   S
    Zr23   O104      1.31739      .   S
    N103   O105      1.91844  1_554   S
    Zr25   O105      1.31718  1_455   S
    N103   O106      1.91553  1_655   S
    Zr5    O106      1.31682      .   S
    N103   O107      1.91439      .   S
    Zr3    O107      1.31705      .   S
    N108   O109      1.91839  1_556   S
    Zr3    O109      1.31716  1_655   S
    N108   O110      1.91076      .   S
    Zr45   O110      1.31744      .   S
    N108   O111      1.91442      .   S
    Zr25   O111      1.31705      .   S
    N108   O112      1.91553  1_455   S
    Zr31   O112      1.31683      .   S
    N113   O114      1.89828      .   S
    Zr14   O114      1.32150      .   S
    N113   O115      1.92667  1_655   S
    Zr17   O115      1.32270  1_565   S
    N113   O116      1.90743      .   S
    Zr2    O116      1.31944      .   S
    N113   O117      1.90507  1_655   S
    Zr8    O117      1.31897      .   S
    N118   O119      1.92636      .   S
    Zr6    O119      1.32246      .   S
    N118   O120      1.89718      .   S
    Zr1    O120      1.32169      .   S
    N118   O121      1.90534      .   S
    Zr20   O121      1.31923      .   S
    N118   O122      1.90667      .   S
    Zr13   O122      1.31969      .   S
    N123   O124      1.92674      .   S
    Zr19   O124      1.32270  1_565   S
    N123   O125      1.90507      .   S
    Zr10   O125      1.31906      .   S
    N123   O126      1.89828      .   S
    Zr12   O126      1.32150      .   S
    N123   O127      1.90742      .   S
    Zr0    O127      1.31950      .   S
    N128   O129      1.88477      .   S
    Zr44   O129      1.32031      .   S
    N128   O130      1.92796      .   S
    Zr40   O130      1.31625      .   S
    N128   O131      1.92237  1_545   S
    Zr21   O131      1.31634  1_554   S
    N128   O132      1.89712      .   S
    Zr28   O132      1.31934      .   S
    N133   O134      1.88516      .   S
    Zr34   O134      1.31998      .   S
    N133   O135      1.89684      .   S
    Zr42   O135      1.31941      .   S
    N133   O136      1.92212  1_655   S
    Zr8    O136      1.31640      .   S
    N133   O137      1.92783      .   S
    Zr30   O137      1.31608      .   S
    N138   O139      1.88476      .   S
    Zr23   O139      1.32029      .   S
    N138   O140      1.89714      .   S
    Zr7    O140      1.31934      .   S
    N138   O141      1.92237  1_565   S
    Zr46   O141      1.31633  1_556   S
    N138   O142      1.92800      .   S
    Zr19   O142      1.31626      .   S
    N143   O144      1.91565  1_545   S
    Zr17   O144      1.31688      .   S
    N143   O145      1.92091      .   S
    Zr37   O145      1.31737  1_565   S
    N143   O146      1.91193      .   S
    Zr8    O146      1.31684      .   S
    N143   O147      1.91101      .   S
    Zr12   O147      1.31740      .   S
    N148   O149      1.89716      .   S
    Zr24   O149      1.32155      .   S
    N148   O150      1.90533      .   S
    Zr45   O150      1.31925      .   S
    N148   O151      1.90666      .   S
    Zr36   O151      1.31971      .   S
    N148   O152      1.92633      .   S
    Zr31   O152      1.32242  1_655   S
    N153   O154      1.93413      .   S
    Zr6    O154      1.30964      .   S
    N153   O155      1.92216      .   S
    Zr32   O155      1.31629      .   S
    N153   O156      1.89668      .   S
    Zr18   O156      1.31936      .   S
    N153   O157      1.88516      .   S
    Zr10   O157      1.31997      .   S
    N158   O159      1.91074      .   S
    Zr44   O159      1.31744      .   S
    N158   O160      1.91442      .   S
    Zr24   O160      1.31705      .   S
    N158   O161      1.91554  1_455   S
    Zr30   O161      1.31683      .   S
    N158   O162      1.91840  1_556   S
    Zr2    O162      1.31716  1_655   S
    N163   O164      1.89711      .   S
    Zr31   O164      1.31935      .   S
    N163   O165      1.92795      .   S
    Zr43   O165      1.31625      .   S
    N163   O166      1.92228      .   S
    Zr22   O166      1.31634  1_554   S
    N163   O167      1.88477      .   S
    Zr47   O167      1.32031      .   S
    N168   O169      1.92237  1_565   S
    Zr44   O169      1.31633  1_556   S
    N168   O170      1.89712      .   S
    Zr5    O170      1.31935      .   S
    N168   O171      1.92799      .   S
    Zr17   O171      1.31626      .   S
    N168   O172      1.88478      .   S
    Zr21   O172      1.32029      .   S
    N173   O174      1.92211  1_455   S
    Zr34   O174      1.31629      .   S
    N173   O175      1.88515      .   S
    Zr8    O175      1.31997      .   S
    N173   O176      1.92794      .   S
    Zr4    O176      1.31595      .   S
    N173   O177      1.89667      .   S
    Zr16   O177      1.31936      .   S
    N178   O179      1.91557      .   S
    Zr7    O179      1.31685      .   S
    N178   O180      1.91845  1_554   S
    Zr27   O180      1.31723      .   S
    N178   O181      1.91439      .   S
    Zr1    O181      1.31705      .   S
    N178   O182      1.91073      .   S
    Zr21   O182      1.31739      .   S
    N183   O184      1.92800      .   S
    Zr18   O184      1.31627      .   S
    N183   O185      1.89713      .   S
    Zr6    O185      1.31935      .   S
    N183   O186      1.88476      .   S
    Zr22   O186      1.32029      .   S
    N183   O187      1.92227      .   S
    Zr47   O187      1.31633  1_556   S
    N188   O189      1.92657  1_545   S
    Zr7    O189      1.32246      .   S
    N188   O190      1.90534  1_545   S
    Zr21   O190      1.31932      .   S
    N188   O191      1.90665      .   S
    Zr12   O191      1.31979      .   S
    N188   O192      1.89718      .   S
    Zr0    O192      1.32168      .   S
    N193   O194      1.91552  1_655   S
    Zr4    O194      1.31683      .   S
    N193   O195      1.91074      .   S
    Zr22   O195      1.31739      .   S
    N193   O196      1.91439      .   S
    Zr2    O196      1.31705      .   S
    N193   O197      1.91844  1_554   S
    Zr24   O197      1.31719  1_455   S
    N198   O199      1.91439      .   S
    Zr0    O199      1.31705      .   S
    N198   O200      1.91844  1_554   S
    Zr26   O200      1.31723      .   S
    N198   O201      1.91073      .   S
    Zr20   O201      1.31740      .   S
    N198   O202      1.91555      .   S
    Zr6    O202      1.31685      .   S
    N203   O204      1.89829      .   S
    Zr15   O204      1.32152      .   S
    N203   O205      1.90743      .   S
    Zr3    O205      1.31944      .   S
    N203   O206      1.92661  1_655   S
    Zr16   O206      1.32252      .   S
    N203   O207      1.90505  1_655   S
    Zr9    O207      1.31899      .   S
    N208   O209      1.89721      .   S
    Zr3    O209      1.32153      .   S
    N208   O210      1.90667      .   S
    Zr15   O210      1.31969      .   S
    N208   O211      1.90534      .   S
    Zr22   O211      1.31923      .   S
    N208   O212      1.92634      .   S
    Zr4    O212      1.32242  1_455   S
    N213   O214      1.92090      .   S
    Zr36   O214      1.31726      .   S
    N213   O215      1.91560      .   S
    Zr16   O215      1.31690      .   S
    N213   O216      1.91101      .   S
    Zr13   O216      1.31740      .   S
    N213   O217      1.91194      .   S
    Zr9    O217      1.31683      .   S
    N218   O219      1.92091      .   S
    Zr39   O219      1.31737  1_565   S
    N218   O220      1.91193      .   S
    Zr10   O220      1.31684      .   S
    N218   O221      1.91101      .   S
    Zr14   O221      1.31740      .   S
    N218   O222      1.91565  1_545   S
    Zr19   O222      1.31688      .   S
    N223   O224      1.92090      .   S
    Zr38   O224      1.31727      .   S
    N223   O225      1.91101      .   S
    Zr15   O225      1.31740      .   S
    N223   O226      1.91194      .   S
    Zr11   O226      1.31683      .   S
    N223   O227      1.91560      .   S
    Zr18   O227      1.31690      .   S
    N228   O229      1.92655  1_565   S
    Zr28   O229      1.32246      .   S
    N228   O230      1.89718      .   S
    Zr27   O230      1.32155      .   S
    N228   O231      1.90663      .   S
    Zr39   O231      1.31979      .   S
    N228   O232      1.90534  1_565   S
    Zr46   O232      1.31933      .   S
    N233   O234      1.91556      .   S
    Zr28   O234      1.31687      .   S
    N233   O235      1.91071      .   S
    Zr46   O235      1.31738      .   S
    N233   O236      1.91442      .   S
    Zr26   O236      1.31705      .   S
    N233   O237      1.91840  1_556   S
    Zr0    O237      1.31721      .   S
    N238   O239      1.92227      .   S
    Zr45   O239      1.31633  1_556   S
    N238   O240      1.92799      .   S
    Zr16   O240      1.31627      .   S
    N238   O241      1.88476      .   S
    Zr20   O241      1.32029      .   S
    N238   O242      1.89712      .   S
    Zr4    O242      1.31934      .   S
    N243   O244      1.89667      .   S
    Zr41   O244      1.31934      .   S
    N243   O245      1.88516      .   S
    Zr33   O245      1.31997      .   S
    N243   O246      1.92218      .   S
    Zr11   O246      1.31640      .   S
    N243   O247      1.92785      .   S
    Zr29   O247      1.31608      .   S
    N248   O249      1.89718      .   S
    Zr25   O249      1.32154      .   S
    N248   O250      1.90663      .   S
    Zr37   O250      1.31980      .   S
    N248   O251      1.90534  1_565   S
    Zr44   O251      1.31933      .   S
    N248   O252      1.92653  1_565   S
    Zr30   O252      1.32243  1_655   S
    N253   O254      1.92664      .   S
    Zr41   O254      1.32254      .   S
    N253   O255      1.90507      .   S
    Zr32   O255      1.31908      .   S
    N253   O256      1.89828      .   S
    Zr38   O256      1.32155      .   S
    N253   O257      1.90748      .   S
    Zr26   O257      1.31941      .   S
    N258   O259      1.91840  1_556   S
    Zr1    O259      1.31721      .   S
    N258   O260      1.91556      .   S
    Zr29   O260      1.31687      .   S
    N258   O261      1.91071      .   S
    Zr47   O261      1.31739      .   S
    N258   O262      1.91441      .   S
    Zr27   O262      1.31704      .   S
    N263   O264      1.88515      .   S
    Zr11   O264      1.31997      .   S
    N263   O265      1.93413      .   S
    Zr7    O265      1.30964      .   S
    N263   O266      1.89667      .   S
    Zr19   O266      1.31936      .   S
    N263   O267      1.92216      .   S
    Zr33   O267      1.31629      .   S
    N268   O269      1.92793      .   S
    Zr5    O269      1.31595      .   S
    N268   O270      1.92210  1_455   S
    Zr35   O270      1.31629      .   S
    N268   O271      1.88516      .   S
    Zr9    O271      1.31997      .   S
    N268   O272      1.89667      .   S
    Zr17   O272      1.31936      .   S
    N273   O274      1.92664  1_455   S
    Zr42   O274      1.32270  1_545   S
    N273   O275      1.90506  1_455   S
    Zr35   O275      1.31900      .   S
    N273   O276      1.90749      .   S
    Zr25   O276      1.31935      .   S
    N273   O277      1.89829      .   S
    Zr37   O277      1.32155      .   S
    N278   O279      1.89716      .   S
    Zr26   O279      1.32155      .   S
    N278   O280      1.90666      .   S
    Zr38   O280      1.31971      .   S
    N278   O281      1.90533      .   S
    Zr47   O281      1.31924      .   S
    N278   O282      1.92635      .   S
    Zr29   O282      1.32245      .   S
    N283   O284      1.89830      .   S
    Zr39   O284      1.32155      .   S
    N283   O285      1.92669      .   S
    Zr40   O285      1.32270  1_545   S
    N283   O286      1.90748      .   S
    Zr27   O286      1.31940      .   S
    N283   O287      1.90508      .   S
    Zr33   O287      1.31908      .   S
