# CIF file generated by openbabel 2.4.90, see http://openbabel.sf.net
data_I
_chemical_name_common ''
_cell_length_a 18.424
_cell_length_b 18.433
_cell_length_c 18.433
_cell_angle_alpha 60.144
_cell_angle_beta 60.154
_cell_angle_gamma 60.156
_space_group_name_H-M_alt 'P 1'
_space_group_name_Hall 'P 1'
loop_
    _symmetry_equiv_pos_as_xyz
    x,y,z
loop_
    _atom_site_label
    _atom_site_type_symbol
    _atom_site_fract_x
    _atom_site_fract_y
    _atom_site_fract_z
    _atom_site_occupancy
    C0      C    0.11097   0.38896   0.11096   1.000
    C1      C    0.38904   0.11112   0.38911   1.000
    C2      C    0.11099   0.11095   0.38895   1.000
    C3      C    0.38903   0.38911   0.11114   1.000
    C4      C    0.11112   0.38910   0.38909   1.000
    C5      C    0.38897   0.11096   0.11095   1.000
    C6      C    0.61106   0.88902   0.88900   1.000
    C7      C    0.88891   0.61088   0.61088   1.000
    C8      C    0.88904   0.88903   0.61102   1.000
    C9      C    0.61100   0.61087   0.88880   1.000
    C10     C    0.61100   0.88885   0.61086   1.000
    C11     C    0.88906   0.61103   0.88901   1.000
