# CIF file generated by openbabel 2.4.90, see http://openbabel.sf.net
data_I
_chemical_name_common ''
_cell_length_a 5.996
_cell_length_b 15.947
_cell_length_c 16.662
_cell_angle_alpha 90
_cell_angle_beta 90.015
_cell_angle_gamma 90.015
_space_group_name_H-M_alt 'P 1'
_space_group_name_Hall 'P 1'
loop_
    _symmetry_equiv_pos_as_xyz
    x,y,z
loop_
    _atom_site_label
    _atom_site_type_symbol
    _atom_site_fract_x
    _atom_site_fract_y
    _atom_site_fract_z
    _atom_site_occupancy
    Cd0     Cd   0.12814   0.45764   0.60103   1.000
    Cd1     Cd   0.62850   0.54289   0.89899   1.000
    Cd2     Cd   0.87153   0.04280   0.10097   1.000
    Cd3     Cd   0.37186   0.95754   0.39894   1.000
    C4      C    0.68275   0.06329   0.27984   1.000
    C5      C    0.81730   0.56341   0.72013   1.000
    C6      C    0.31753   0.43724   0.77989   1.000
    C7      C    0.18239   0.93713   0.22009   1.000
    Cl8     Cl   0.07808   0.96200   0.50480   1.000
    Cl9     Cl   0.42199   0.46206   0.49518   1.000
    Cl10    Cl   0.92239   0.53833   0.00483   1.000
    Cl11    Cl   0.57752   0.03826   0.99516   1.000
    O12     O    0.67559   0.98387   0.28828   1.000
    O13     O    0.72091   0.10332   0.21563   1.000
    O14     O    0.82441   0.48401   0.71171   1.000
    O15     O    0.77911   0.60346   0.78434   1.000
    O16     O    0.32446   0.51664   0.78838   1.000
    O17     O    0.27940   0.39727   0.71563   1.000
    O18     O    0.17552   0.01654   0.21161   1.000
    O19     O    0.22052   0.89714   0.28434   1.000
    Ts20    Ts   0.06519   0.41666   0.58954   1.000
    Ts21    Ts   0.03871   0.49348   0.59157   1.000
    Ts22    Ts   0.53910   0.50702   0.90846   1.000
    Ts23    Ts   0.56542   0.58383   0.91049   1.000
    Ts24    Ts   0.93458   0.08376   0.08946   1.000
    Ts25    Ts   0.96086   0.00693   0.09151   1.000
    Ts26    Ts   0.46133   0.99339   0.40841   1.000
    Ts27    Ts   0.43481   0.91656   0.41042   1.000
    Og28    Og   0.66574   0.08131   0.30463   1.000
    Og29    Og   0.83436   0.58143   0.69534   1.000
    Og30    Og   0.33459   0.41919   0.80466   1.000
    Og31    Og   0.16529   0.91907   0.19532   1.000
loop_
    _geom_bond_atom_site_label_1
    _geom_bond_atom_site_label_2
    _geom_bond_distance
    _geom_bond_site_symmetry_2
    _ccdc_geom_bond_type
    Cl10   Cd1       2.49374  1_554   S
    Cd2    O13       2.32342      .   S
    Cd2    Cl11      2.49382  1_554   S
    O18    C7        1.27501  1_545   S
    O13    C4        1.26687      .   S
    C7     O19       1.26682      .   S
    C4     O12       1.27499  1_545   S
    O19    Cd3       2.32292      .   S
    Cd3    Cl8       2.49418      .   S
    Cl9    Cd0       2.49429      .   S
    Cd0    O17       2.32273      .   S
    O14    C5        1.27464      .   S
    O17    C6        1.26676      .   S
    C5     O15       1.26690      .   S
    C6     O16       1.27471      .   S
    O15    Cd1       2.32349      .   S
    Cd0    Ts20      0.77855      .   S
    Cd0    Ts21      0.79937      .   S
    Cd1    Ts22      0.79957      .   S
    Cd1    Ts23      0.77854      .   S
    Cd2    Ts24      0.77860      .   S
    Cd2    Ts25      0.79955      .   S
    Cd3    Ts26      0.79951      .   S
    Cd3    Ts27      0.77854      .   S
    C4     Og28      0.51345      .   S
    C5     Og29      0.51346      .   S
    C6     Og30      0.51348      .   S
    C7     Og31      0.51348      .   S
