# CIF file generated by openbabel 2.4.90, see http://openbabel.sf.net
data_I
_chemical_name_common ''
_cell_length_a 5.996
_cell_length_b 15.947
_cell_length_c 16.662
_cell_angle_alpha 90
_cell_angle_beta 90.015
_cell_angle_gamma 90.015
_space_group_name_H-M_alt 'P 1'
_space_group_name_Hall 'P 1'
loop_
    _symmetry_equiv_pos_as_xyz
    x,y,z
loop_
    _atom_site_label
    _atom_site_type_symbol
    _atom_site_fract_x
    _atom_site_fract_y
    _atom_site_fract_z
    _atom_site_occupancy
    N0      N    0.65295   0.18228   0.46617   1.000
    N1      N    0.34742   0.31806   0.96642   1.000
    N2      N    0.15239   0.81799   0.03383   1.000
    N3      N    0.84716   0.68229   0.53377   1.000
    Zr4     Zr   0.79434   0.54642   0.82400   1.000
    O5      O    0.81968   0.59139   0.71618   1.000
    O6      O    0.60763   0.47500   0.88190   1.000
    O7      O    0.56874   0.62878   0.89952   1.000
    Zr8     Zr   0.20567   0.95407   0.32396   1.000
    O9      O    0.18012   0.90904   0.21617   1.000
    O10     O    0.39259   0.02543   0.38181   1.000
    O11     O    0.43120   0.87162   0.39946   1.000
    Zr12    Zr   0.29431   0.45417   0.67602   1.000
    O13     O    0.10744   0.52551   0.61816   1.000
    O14     O    0.06882   0.37170   0.60050   1.000
    O15     O    0.31979   0.40914   0.78388   1.000
    Zr16    Zr   0.70566   0.04631   0.17598   1.000
    O17     O    0.93121   0.12873   0.10052   1.000
    O18     O    0.89231   0.97490   0.11814   1.000
    O19     O    0.68038   0.09130   0.28379   1.000
loop_
    _geom_bond_atom_site_label_1
    _geom_bond_atom_site_label_2
    _geom_bond_distance
    _geom_bond_site_symmetry_2
    _ccdc_geom_bond_type
    Zr4    O5        1.94032      .   S
    N3     O5        3.37124      .   S
    Zr4    O6        1.86585      .   S
    N1     O6        3.26795      .   S
    Zr4    O7        2.26718      .   S
    N2     O7        4.51131  1_554   S
    Zr8    O9        1.94012      .   S
    N2     O9        3.37129      .   S
    Zr8    O10       1.86521  1_565   S
    N0     O10       3.26590      .   S
    Zr8    O11       2.26713      .   S
    N3     O11       4.51071      .   S
    Zr12   O13       1.86518      .   S
    N3     O13       3.26567  1_655   S
    Zr12   O14       2.26703      .   S
    N0     O14       4.51056  1_655   S
    Zr12   O15       1.94119      .   S
    N1     O15       3.37456      .   S
    Zr16   O17       2.26657      .   S
    N1     O17       4.50950  1_456   S
    Zr16   O18       1.86523  1_545   S
    N2     O18       3.26636  1_455   S
    Zr16   O19       1.94033      .   S
    N0     O19       3.37149      .   S
