# CIF file generated by openbabel 2.4.90, see http://openbabel.sf.net
data_I
_chemical_name_common ''
_cell_length_a 5.996
_cell_length_b 15.947
_cell_length_c 16.662
_cell_angle_alpha 90
_cell_angle_beta 90.015
_cell_angle_gamma 90.015
_space_group_name_H-M_alt 'P 1'
_space_group_name_Hall 'P 1'
loop_
    _symmetry_equiv_pos_as_xyz
    x,y,z
loop_
    _atom_site_label
    _atom_site_type_symbol
    _atom_site_fract_x
    _atom_site_fract_y
    _atom_site_fract_z
    _atom_site_occupancy
    C0      C    0.37186   0.95754   0.39894   1.000
    C1      C    0.12814   0.45764   0.60103   1.000
    C2      C    0.62850   0.54289   0.89899   1.000
    C3      C    0.87153   0.04280   0.10097   1.000
    C4      C    0.45717   0.23336   0.60313   1.000
    C5      C    0.66476   0.36331   0.63749   1.000
    C6      C    0.19458   0.29724   0.49117   1.000
    C7      C    0.01343   0.16101   0.45321   1.000
    C8      C    0.79195   0.03443   0.43132   1.000
    C9      C    0.41273   0.11692   0.51031   1.000
    C10     C    0.63393   0.05902   0.55117   1.000
    C11     C    0.75565   0.16836   0.35492   1.000
    C12     C    0.39995   0.19273   0.28698   1.000
    C13     C    0.37204   0.20314   0.39258   1.000
    C14     C    0.20199   0.07169   0.29151   1.000
    C15     C    0.04285   0.73341   0.39679   1.000
    C16     C    0.83522   0.86330   0.36244   1.000
    C17     C    0.30543   0.79709   0.50876   1.000
    C18     C    0.48664   0.66092   0.54672   1.000
    C19     C    0.70815   0.53447   0.56869   1.000
    C20     C    0.08733   0.61696   0.48961   1.000
    C21     C    0.86607   0.55900   0.44881   1.000
    C22     C    0.74467   0.66847   0.64501   1.000
    C23     C    0.10043   0.69284   0.71295   1.000
    C24     C    0.12837   0.70318   0.60733   1.000
    C25     C    0.29810   0.57175   0.70848   1.000
    C26     C    0.54316   0.26678   0.10310   1.000
    C27     C    0.33516   0.13694   0.13742   1.000
    C28     C    0.80553   0.20326   0.99105   1.000
    C29     C    0.98707   0.33941   0.95313   1.000
    C30     C    0.20860   0.46591   0.93141   1.000
    C31     C    0.58790   0.38325   0.01025   1.000
    C32     C    0.36700   0.44120   0.05122   1.000
    C33     C    0.24476   0.33209   0.85486   1.000
    C34     C    0.60034   0.30772   0.78692   1.000
    C35     C    0.62832   0.29722   0.89252   1.000
    C36     C    0.79833   0.42877   0.79158   1.000
    C37     C    0.95680   0.76668   0.89677   1.000
    C38     C    0.16494   0.63693   0.86243   1.000
    C39     C    0.69429   0.70332   0.00895   1.000
    C40     C    0.51260   0.83939   0.04690   1.000
    C41     C    0.29127   0.96580   0.06855   1.000
    C42     C    0.91181   0.88305   0.98980   1.000
    C43     C    0.13248   0.94109   0.94875   1.000
    C44     C    0.25498   0.83198   0.14511   1.000
    C45     C    0.89936   0.80764   0.21309   1.000
    C46     C    0.87135   0.79710   0.10749   1.000
    C47     C    0.70155   0.92867   0.20840   1.000
    C48     C    0.62197   0.24401   0.57738   1.000
    C49     C    0.71753   0.18587   0.52467   1.000
    C50     C    0.73663   0.31690   0.59714   1.000
    C51     C    0.03228   0.27921   0.51536   1.000
    C52     C    0.92942   0.20434   0.49382   1.000
    C53     C    0.59319   0.10597   0.50493   1.000
    C54     C    0.63172   0.11736   0.35420   1.000
    C55     C    0.40057   0.15781   0.34391   1.000
    C56     C    0.68275   0.06329   0.27984   1.000
    C57     C    0.87806   0.74401   0.42255   1.000
    C58     C    0.78253   0.68585   0.47526   1.000
    C59     C    0.76338   0.81687   0.40279   1.000
    C60     C    0.46773   0.77911   0.48457   1.000
    C61     C    0.57063   0.70427   0.50611   1.000
    C62     C    0.90689   0.60599   0.49502   1.000
    C63     C    0.86849   0.61746   0.64576   1.000
    C64     C    0.09971   0.65788   0.65603   1.000
    C65     C    0.81730   0.56341   0.72013   1.000
    C66     C    0.37831   0.25622   0.07732   1.000
    C67     C    0.28291   0.31441   0.02462   1.000
    C68     C    0.26343   0.18338   0.09706   1.000
    C69     C    0.96788   0.22121   0.01524   1.000
    C70     C    0.07095   0.29603   0.00000   1.000
    C71     C    0.40746   0.39428   0.00492   1.000
    C72     C    0.36871   0.38308   0.85419   1.000
    C73     C    0.59980   0.34260   0.84388   1.000
    C74     C    0.31753   0.43724   0.77989   1.000
    C75     C    0.12160   0.75616   0.92258   1.000
    C76     C    0.21687   0.81435   0.97534   1.000
    C77     C    0.23657   0.68337   0.90283   1.000
    C78     C    0.53197   0.72124   0.98473   1.000
    C79     C    0.42879   0.79601   0.00626   1.000
    C80     C    0.09224   0.89416   0.99507   1.000
    C81     C    0.13110   0.88297   0.14578   1.000
    C82     C    0.89995   0.84250   0.15611   1.000
    C83     C    0.18239   0.93713   0.22009   1.000
    C84     C    0.93931   0.33469   0.56654   1.000
    C85     C    0.64026   0.06508   0.42734   1.000
    C86     C    0.56069   0.83461   0.43339   1.000
    C87     C    0.85986   0.56514   0.57263   1.000
    C88     C    0.06068   0.16568   0.06643   1.000
    C89     C    0.36030   0.43528   0.92739   1.000
    C90     C    0.43927   0.66570   0.93349   1.000
    C91     C    0.13953   0.93517   0.07258   1.000
    C92     C    0.07808   0.96200   0.50480   1.000
    C93     C    0.42199   0.46206   0.49518   1.000
    C94     C    0.92239   0.53833   0.00483   1.000
    C95     C    0.57752   0.03826   0.99516   1.000
    C96     C    0.67559   0.98387   0.28828   1.000
    C97     C    0.22379   0.09769   0.34664   1.000
    C98     C    0.72091   0.10332   0.21563   1.000
    C99     C    0.82441   0.48401   0.71171   1.000
    C100    C    0.27634   0.59773   0.65334   1.000
    C101    C    0.77911   0.60346   0.78434   1.000
    C102    C    0.32446   0.51664   0.78838   1.000
    C103    C    0.77669   0.40267   0.84667   1.000
    C104    C    0.27940   0.39727   0.71563   1.000
    C105    C    0.17552   0.01654   0.21161   1.000
    C106    C    0.72319   0.90258   0.15330   1.000
    C107    C    0.22052   0.89714   0.28434   1.000
    O108    O    0.01941   0.25862   0.00762   1.000
    O109    O    0.17693   0.30522   0.01231   1.000
    O110    O    0.02901   0.31772   0.97657   1.000
    O111    O    0.77544   0.54061   0.95191   1.000
    O112    O    0.49768   0.38877   0.00759   1.000
    O113    O    0.34518   0.35435   0.01477   1.000
    O114    O    0.38723   0.41774   0.02807   1.000
    O115    O    0.38388   0.41478   0.96616   1.000
    O116    O    0.47070   0.81770   0.02658   1.000
    O117    O    0.32283   0.80518   0.99080   1.000
    O118    O    0.48038   0.75862   0.99549   1.000
    O119    O    0.61313   0.71228   0.99684   1.000
    O120    O    0.01428   0.19344   0.04084   1.000
    O121    O    0.88670   0.21223   0.00315   1.000
    O122    O    0.33061   0.28532   0.05097   1.000
    O123    O    0.16206   0.17453   0.08175   1.000
    O124    O    0.96611   0.10424   0.08370   1.000
    O125    O    0.21540   0.95049   0.07057   1.000
    O126    O    0.00553   0.98899   0.08678   1.000
    O127    O    0.13531   0.90907   0.10919   1.000
    O128    O    0.11588   0.91467   0.03383   1.000
    O129    O    0.32087   0.21980   0.08719   1.000
    O130    O    0.46073   0.26150   0.09021   1.000
    O131    O    0.29930   0.16016   0.11724   1.000
    O132    O    0.79622   0.07306   0.15830   1.000
    O133    O    0.72453   0.04053   0.04807   1.000
    O134    O    0.88565   0.81980   0.13180   1.000
    O135    O    0.19304   0.85747   0.14545   1.000
    O136    O    0.01553   0.86273   0.15095   1.000
    O137    O    0.15674   0.91005   0.18294   1.000
    O138    O    0.81157   0.87254   0.15471   1.000
    O139    O    0.71237   0.91562   0.18085   1.000
    O140    O    0.89966   0.82507   0.18460   1.000
    O141    O    0.17895   0.97683   0.21585   1.000
    O142    O    0.70183   0.08330   0.24773   1.000
    O143    O    0.20145   0.91713   0.25222   1.000
    O144    O    0.67917   0.02358   0.28406   1.000
    O145    O    0.65724   0.09032   0.31702   1.000
    O146    O    0.29619   0.92734   0.34164   1.000
    O147    O    0.40026   0.17527   0.31544   1.000
    O148    O    0.21289   0.08469   0.31907   1.000
    O149    O    0.31218   0.12775   0.34527   1.000
    O150    O    0.51614   0.13759   0.34906   1.000
    O151    O    0.38630   0.18047   0.36825   1.000
    O152    O    0.69369   0.14286   0.35456   1.000
    O153    O    0.63599   0.09122   0.39077   1.000
    O154    O    0.79930   0.84008   0.38262   1.000
    O155    O    0.96045   0.73871   0.40967   1.000
    O156    O    0.50606   0.01131   0.41314   1.000
    O157    O    0.46628   0.89608   0.41616   1.000
    O158    O    0.22497   0.95977   0.45187   1.000
    O159    O    0.82072   0.78044   0.41267   1.000
    O160    O    0.66203   0.82574   0.41809   1.000
    O161    O    0.83029   0.71493   0.44890   1.000
    O162    O    0.71610   0.04975   0.42933   1.000
    O163    O    0.61672   0.08552   0.46614   1.000
    O164    O    0.51421   0.80686   0.45898   1.000
    O165    O    0.88648   0.58249   0.47191   1.000
    O166    O    0.97143   0.18268   0.47351   1.000
    O167    O    0.84471   0.64592   0.48514   1.000
    O168    O    0.67658   0.69506   0.49068   1.000
    O169    O    0.51918   0.74169   0.49534   1.000
    O170    O    0.38658   0.78810   0.49666   1.000
    O171    O    0.99711   0.61147   0.49231   1.000
    O172    O    0.11343   0.28822   0.50326   1.000
    O173    O    0.98085   0.24178   0.50459   1.000
    O174    O    0.82348   0.19511   0.50925   1.000
    O175    O    0.88338   0.58556   0.53383   1.000
    O176    O    0.27506   0.45985   0.54811   1.000
    O177    O    0.50296   0.11145   0.50762   1.000
    O178    O    0.65536   0.14592   0.51480   1.000
    O179    O    0.61356   0.08250   0.52805   1.000
    O180    O    0.52863   0.68259   0.52642   1.000
    O181    O    0.98579   0.30695   0.54095   1.000
    O182    O    0.66975   0.21494   0.55103   1.000
    O183    O    0.83797   0.32579   0.58184   1.000
    O184    O    0.03372   0.39617   0.58379   1.000
    O185    O    0.78401   0.54981   0.57066   1.000
    O186    O    0.99400   0.51139   0.58683   1.000
    O187    O    0.86418   0.59130   0.60920   1.000
    O188    O    0.67930   0.28046   0.58726   1.000
    O189    O    0.53957   0.23869   0.59025   1.000
    O190    O    0.70069   0.34010   0.61731   1.000
    O191    O    0.20377   0.42746   0.65833   1.000
    O192    O    0.11404   0.68053   0.63168   1.000
    O193    O    0.80658   0.64296   0.64538   1.000
    O194    O    0.98410   0.63767   0.65089   1.000
    O195    O    0.84289   0.59044   0.68294   1.000
    O196    O    0.18803   0.62781   0.65469   1.000
    O197    O    0.28722   0.58474   0.68091   1.000
    O198    O    0.10007   0.67536   0.68449   1.000
    O199    O    0.82085   0.52371   0.71592   1.000
    O200    O    0.29847   0.41726   0.74776   1.000
    O201    O    0.79821   0.58344   0.75223   1.000
    O202    O    0.32100   0.47694   0.78414   1.000
    O203    O    0.34312   0.41016   0.81704   1.000
    O204    O    0.70381   0.57318   0.84166   1.000
    O205    O    0.60007   0.32516   0.81540   1.000
    O206    O    0.78751   0.41572   0.81913   1.000
    O207    O    0.68824   0.37264   0.84528   1.000
    O208    O    0.48425   0.36284   0.84904   1.000
    O209    O    0.61406   0.31991   0.86820   1.000
    O210    O    0.30673   0.35759   0.85453   1.000
    O211    O    0.36450   0.40918   0.89079   1.000
    O212    O    0.20075   0.66015   0.88263   1.000
    O213    O    0.03920   0.76142   0.90967   1.000
    O214    O    0.49440   0.48908   0.91319   1.000
    O215    O    0.53389   0.60430   0.91624   1.000
    O216    O    0.17908   0.71976   0.91271   1.000
    O217    O    0.33792   0.67454   0.91816   1.000
    O218    O    0.16923   0.78525   0.94896   1.000
    O219    O    0.28445   0.45060   0.92940   1.000
    O220    O    0.48562   0.69347   0.95911   1.000
    O221    O    0.11236   0.91763   0.97191   1.000
    O222    O    0.15456   0.85425   0.98521   1.000
    O223    O    0.00203   0.88861   0.99244   1.000
loop_
    _geom_bond_atom_site_label_1
    _geom_bond_atom_site_label_2
    _geom_bond_distance
    _geom_bond_site_symmetry_2
    _ccdc_geom_bond_type
    C70    O108      0.68372      .   S
    C69    O108      0.68372  1_655   S
    C70    O109      0.68355      .   S
    C67    O109      0.68355      .   S
    C70    O110      0.57907  1_554   S
    C29    O110      0.57907  1_655   S
    C94    O111      1.24687  1_554   S
    C2     O111      1.24687      .   S
    C71    O112      0.54987      .   S
    C31    O112      0.54987      .   S
    C71    O113      0.75618      .   S
    C67    O113      0.75618      .   S
    C71    O114      0.55091      .   S
    C32    O114      0.55091      .   S
    C71    O115      0.73754  1_554   S
    C89    O115      0.73754      .   S
    C79    O116      0.54524      .   S
    C40    O116      0.54524      .   S
    C79    O117      0.70097  1_554   S
    C76    O117      0.70097      .   S
    C79    O118      0.69532  1_554   S
    C78    O118      0.69532      .   S
    C39    O119      0.54582  1_554   S
    C78    O119      0.54582      .   S
    C69    O120      0.67481  1_655   S
    C88    O120      0.67481      .   S
    C69    O121      0.54582      .   S
    C28    O121      0.54582  1_556   S
    C67    O122      0.69994      .   S
    C66    O122      0.69994      .   S
    C88    O123      0.67406      .   S
    C68    O123      0.67406      .   S
    C88    O124      1.16791  1_455   S
    C3     O124      1.16791      .   S
    C41    O125      0.51738      .   S
    C91    O125      0.51738      .   S
    C91    O126      1.19932      .   S
    C3     O126      1.19932  1_645   S
    C91    O127      0.73878      .   S
    C81    O127      0.73878      .   S
    C91    O128      0.73753      .   S
    C80    O128      0.73753  1_556   S
    C66    O129      0.69488      .   S
    C68    O129      0.69488      .   S
    C66    O130      0.54532      .   S
    C26    O130      0.54532      .   S
    C68    O131      0.54446      .   S
    C27    O131      0.54446      .   S
    C3     O132      1.16171      .   S
    C98    O132      1.16171      .   S
    C3     O133      1.24691      .   S
    C95    O133      1.24691  1_556   S
    C46    O134      0.54993      .   S
    C82    O134      0.54993      .   S
    C44    O135      0.55076      .   S
    C81    O135      0.55076      .   S
    C81    O136      0.76921      .   S
    C82    O136      0.76921  1_655   S
    C81    O137      0.77022      .   S
    C83    O137      0.77022      .   S
    C106   O138      0.71484      .   S
    C82    O138      0.71484      .   S
    C106   O139      0.50812      .   S
    C47    O139      0.50812      .   S
    C82    O140      0.55003      .   S
    C45    O140      0.55003      .   S
    C105   O141      0.63751  1_545   S
    C83    O141      0.63751      .   S
    C98    O142      0.63343      .   S
    C56    O142      0.63343      .   S
    C83    O143      0.63341      .   S
    C107   O143      0.63341      .   S
    C56    O144      0.63750      .   S
    C96    O144      0.63750  1_565   S
    C56    O145      0.77017      .   S
    C54    O145      0.77017      .   S
    C107   O146      1.16146      .   S
    C0     O146      1.16146      .   S
    C12    O147      0.55003      .   S
    C55    O147      0.55003      .   S
    C14    O148      0.50813      .   S
    C97    O148      0.50813      .   S
    C55    O149      0.71489      .   S
    C97    O149      0.71489      .   S
    C55    O150      0.76919      .   S
    C54    O150      0.76919      .   S
    C55    O151      0.54992      .   S
    C13    O151      0.54992      .   S
    C54    O152      0.55075      .   S
    C11    O152      0.55075      .   S
    C54    O153      0.73878      .   S
    C85    O153      0.73878      .   S
    C16    O154      0.54446      .   S
    C59    O154      0.54446      .   S
    C15    O155      0.54530  1_455   S
    C57    O155      0.54530      .   S
    C0     O156      1.19926  1_565   S
    C85    O156      1.19926      .   S
    C0     O157      1.16780      .   S
    C86    O157      1.16780      .   S
    C0     O158      1.24709      .   S
    C92    O158      1.24709      .   S
    C59    O159      0.69487      .   S
    C57    O159      0.69487      .   S
    C59    O160      0.67406      .   S
    C86    O160      0.67406      .   S
    C57    O161      0.69993      .   S
    C58    O161      0.69993      .   S
    C85    O162      0.51738      .   S
    C8     O162      0.51738      .   S
    C85    O163      0.73762      .   S
    C53    O163      0.73762      .   S
    C86    O164      0.67483      .   S
    C60    O164      0.67483      .   S
    C21    O165      0.55091      .   S
    C62    O165      0.55091      .   S
    C7     O166      0.54532  1_455   S
    C52    O166      0.54532      .   S
    C58    O167      0.75613      .   S
    C62    O167      0.75613      .   S
    C58    O168      0.70096      .   S
    C61    O168      0.70096      .   S
    C60    O169      0.69531      .   S
    C61    O169      0.69531      .   S
    C60    O170      0.54592      .   S
    C17    O170      0.54592      .   S
    C20    O171      0.54984  1_455   S
    C62    O171      0.54984      .   S
    C6     O172      0.54592      .   S
    C51    O172      0.54592      .   S
    C52    O173      0.69531      .   S
    C51    O173      0.69531  1_455   S
    C52    O174      0.70096      .   S
    C49    O174      0.70096      .   S
    C62    O175      0.73762      .   S
    C87    O175      0.73762      .   S
    C93    O176      1.24715      .   S
    C1     O176      1.24715      .   S
    C53    O177      0.54987      .   S
    C9     O177      0.54987      .   S
    C53    O178      0.75614      .   S
    C49    O178      0.75614      .   S
    C53    O179      0.55091      .   S
    C10    O179      0.55091      .   S
    C61    O180      0.54532      .   S
    C18    O180      0.54532      .   S
    C51    O181      0.67481  1_455   S
    C84    O181      0.67481      .   S
    C49    O182      0.69994      .   S
    C48    O182      0.69994      .   S
    C84    O183      0.67406      .   S
    C50    O183      0.67406      .   S
    C84    O184      1.16782  1_655   S
    C1     O184      1.16782      .   S
    C19    O185      0.51738      .   S
    C87    O185      0.51738      .   S
    C87    O186      1.19906      .   S
    C1     O186      1.19906  1_455   S
    C87    O187      0.73880      .   S
    C63    O187      0.73880      .   S
    C48    O188      0.69487      .   S
    C50    O188      0.69487      .   S
    C48    O189      0.54532      .   S
    C4     O189      0.54532      .   S
    C50    O190      0.54447      .   S
    C5     O190      0.54447      .   S
    C1     O191      1.16137      .   S
    C104   O191      1.16137      .   S
    C24    O192      0.54992      .   S
    C64    O192      0.54992      .   S
    C22    O193      0.55076      .   S
    C63    O193      0.55076      .   S
    C63    O194      0.76914      .   S
    C64    O194      0.76914  1_455   S
    C63    O195      0.77018      .   S
    C65    O195      0.77018      .   S
    C100   O196      0.71487      .   S
    C64    O196      0.71487      .   S
    C100   O197      0.50814      .   S
    C25    O197      0.50814      .   S
    C64    O198      0.55004      .   S
    C23    O198      0.55004      .   S
    C99    O199      0.63732      .   S
    C65    O199      0.63732      .   S
    C104   O200      0.63338      .   S
    C74    O200      0.63338      .   S
    C65    O201      0.63345      .   S
    C101   O201      0.63345      .   S
    C74    O202      0.63736      .   S
    C102   O202      0.63736      .   S
    C74    O203      0.77022      .   S
    C72    O203      0.77022      .   S
    C101   O204      1.16174      .   S
    C2     O204      1.16174      .   S
    C34    O205      0.55004      .   S
    C73    O205      0.55004      .   S
    C36    O206      0.50811      .   S
    C103   O206      0.50811      .   S
    C73    O207      0.71484      .   S
    C103   O207      0.71484      .   S
    C73    O208      0.76921      .   S
    C72    O208      0.76921      .   S
    C73    O209      0.54992      .   S
    C35    O209      0.54992      .   S
    C72    O210      0.55077      .   S
    C33    O210      0.55077      .   S
    C72    O211      0.73877      .   S
    C89    O211      0.73877      .   S
    C38    O212      0.54446      .   S
    C77    O212      0.54446      .   S
    C37    O213      0.54530  1_655   S
    C75    O213      0.54530      .   S
    C2     O214      1.19935      .   S
    C89    O214      1.19935      .   S
    C2     O215      1.16781      .   S
    C90    O215      1.16781      .   S
    C77    O216      0.69487      .   S
    C75    O216      0.69487      .   S
    C77    O217      0.67407      .   S
    C90    O217      0.67407      .   S
    C75    O218      0.69994      .   S
    C76    O218      0.69994      .   S
    C89    O219      0.51738      .   S
    C30    O219      0.51738      .   S
    C90    O220      0.67481      .   S
    C78    O220      0.67481      .   S
    C43    O221      0.55091      .   S
    C80    O221      0.55091      .   S
    C76    O222      0.75617      .   S
    C80    O222      0.75617      .   S
    C42    O223      0.54985  1_655   S
    C80    O223      0.54985      .   S
