# CIF file generated by openbabel 2.4.90, see http://openbabel.sf.net
data_I
_chemical_name_common ''
_cell_length_a 13.968
_cell_length_b 14.562
_cell_length_c 24.165
_cell_angle_alpha 89.979
_cell_angle_beta 90.005
_cell_angle_gamma 116.971
_space_group_name_H-M_alt 'P 1'
_space_group_name_Hall 'P 1'
loop_
    _symmetry_equiv_pos_as_xyz
    x,y,z
loop_
    _atom_site_label
    _atom_site_type_symbol
    _atom_site_fract_x
    _atom_site_fract_y
    _atom_site_fract_z
    _atom_site_occupancy
    Ca0     Ca   0.97638   0.47867   0.14880   1.000
    Ca1     Ca   0.97626   0.97919   0.35127   1.000
    Ca2     Ca   0.02369   0.52129   0.85129   1.000
    Ca3     Ca   0.00003   0.00002   0.50004   1.000
    Ca4     Ca   0.00001   0.49999   0.00000   1.000
    H5      H    0.73304   0.36827   0.17784   1.000
    Ca6     Ca   0.02383   0.02082   0.64880   1.000
    H7      H    0.26714   0.13135   0.67779   1.000
    H8      H    0.26696   0.63167   0.82226   1.000
    H9      H    0.73299   0.86870   0.32231   1.000
    C10     C    0.92666   0.13222   0.60266   1.000
    C11     C    0.23365   0.14168   0.57114   1.000
    C12     C    0.92944   0.82469   0.60380   1.000
    O13     O    0.06726   0.43728   0.07185   1.000
    O14     O    0.83442   0.37705   0.03304   1.000
    O15     O    0.79291   0.39170   0.12124   1.000
    O16     O    0.09490   0.65837   0.15226   1.000
    C17     C    0.79283   0.40266   0.25151   1.000
    C18     C    0.07346   0.36736   0.10252   1.000
    C19     C    0.76651   0.35803   0.07118   1.000
    C20     C    0.07093   0.67486   0.10390   1.000
    C21     C    0.20741   0.09697   0.75148   1.000
    C22     C    0.07341   0.86778   0.39740   1.000
    C23     C    0.76644   0.85833   0.42896   1.000
    C24     C    0.07062   0.17532   0.39620   1.000
    C25     C    0.20721   0.59731   0.74857   1.000
    C26     C    0.92663   0.63261   0.89755   1.000
    C27     C    0.23355   0.64194   0.92894   1.000
    C28     C    0.92917   0.32511   0.89621   1.000
    C29     C    0.79268   0.90301   0.24860   1.000
    O30     O    0.96114   0.14723   0.65203   1.000
    O31     O    0.93292   0.06243   0.57193   1.000
    O32     O    0.16574   0.12282   0.53301   1.000
    O33     O    0.20723   0.10788   0.62119   1.000
    O34     O    0.90571   0.84102   0.65227   1.000
    O35     O    0.00000   0.89808   0.57473   1.000
    O36     O    0.88723   0.44521   0.23395   1.000
    O37     O    0.70802   0.36102   0.21857   1.000
    O38     O    0.00000   0.35221   0.15190   1.000
    O39     O    0.99802   0.60159   0.07486   1.000
    O40     O    0.11299   0.05452   0.73395   1.000
    O41     O    0.29219   0.13858   0.71851   1.000
    O42     O    0.00000   0.85277   0.34803   1.000
    O43     O    0.06713   0.93758   0.42812   1.000
    O44     O    0.83432   0.87719   0.46710   1.000
    O45     O    0.79287   0.89213   0.37891   1.000
    O46     O    0.09433   0.15901   0.34781   1.000
    O47     O    0.99797   0.10193   0.42536   1.000
    O48     O    0.11279   0.55476   0.76611   1.000
    O49     O    0.29199   0.63891   0.78154   1.000
    O50     O    0.96118   0.64781   0.84819   1.000
    O51     O    0.93279   0.56265   0.92821   1.000
    O52     O    0.16566   0.62294   0.96700   1.000
    O53     O    0.20713   0.60827   0.87888   1.000
    O54     O    0.90523   0.34160   0.84785   1.000
    O55     O    0.00000   0.39838   0.92526   1.000
    O56     O    0.88712   0.94543   0.26611   1.000
    O57     O    0.70792   0.86147   0.28159   1.000
    Og58    Og   0.91022   0.15328   0.59470   1.000
    Og59    Og   0.27236   0.16270   0.56657   1.000
    Og60    Og   0.91111   0.78967   0.59550   1.000
    Og61    Og   0.78494   0.40042   0.27152   1.000
    Og62    Og   0.08988   0.34629   0.09455   1.000
    Og63    Og   0.72779   0.33700   0.06661   1.000
    Og64    Og   0.08924   0.70990   0.09560   1.000
    Og65    Og   0.21531   0.09920   0.77149   1.000
    Og66    Og   0.08984   0.84672   0.40537   1.000
    Og67    Og   0.72771   0.83731   0.43352   1.000
    Og68    Og   0.08894   0.21035   0.40452   1.000
    Og69    Og   0.21511   0.59956   0.72856   1.000
    Og70    Og   0.91021   0.65367   0.90552   1.000
    Og71    Og   0.27227   0.66297   0.93349   1.000
    Og72    Og   0.91086   0.29007   0.90451   1.000
    Og73    Og   0.78477   0.90077   0.22859   1.000
loop_
    _geom_bond_atom_site_label_1
    _geom_bond_atom_site_label_2
    _geom_bond_distance
    _geom_bond_site_symmetry_2
    _ccdc_geom_bond_type
    O14    C19       1.26006      .   S
    O14    Ca4       2.33140  1_655   S
    C19    O15       1.29464      .   S
    O13    C18       1.29341      .   S
    O39    C20       1.29724  1_655   S
    C18    O38       1.52319      .   S
    C20    O16       1.26814      .   S
    Ca0    O38       2.01421  1_655   S
    Ca0    O36       2.33908      .   S
    H5     O37       1.03370      .   S
    O37    C17       1.32408      .   S
    O36    C17       1.24957      .   S
    C29    O56       1.24962      .   S
    C29    O57       1.32411      .   S
    O56    Ca1       2.33923      .   S
    O57    H9        1.03369      .   S
    O46    C24       1.26695      .   S
    O42    Ca1       2.01476  1_455   S
    O42    C22       1.52289      .   S
    O45    C23       1.29468      .   S
    C24    O47       1.29782  1_455   S
    C22    O43       1.29358      .   S
    C23    O44       1.26006      .   S
    O44    Ca3       2.33148  1_665   S
    Ca3    O32       2.33158      .   S
    O32    C11       1.26008      .   S
    C11    O33       1.29466      .   S
    O31    C10       1.29353      .   S
    O35    C12       1.28498  1_455   S
    C10    O30       1.26793      .   S
    C12    O34       1.26885      .   S
    Ca6    O30       2.37132  1_455   S
    Ca6    O40       2.33918      .   S
    H7     O41       1.03363      .   S
    O41    C21       1.32410      .   S
    O40    C21       1.24957      .   S
    C25    O48       1.24962      .   S
    C25    O49       1.32424      .   S
    O48    Ca2       2.33937      .   S
    O49    H8        1.03350      .   S
    O54    C28       1.26796      .   S
    O50    Ca2       2.37102  1_655   S
    O50    C26       1.26793      .   S
    O53    C27       1.29472      .   S
    C28    O55       1.28570  1_655   S
    C26    O51       1.29355      .   S
    C27    O52       1.25846      .   S
    O52    Ca4       2.33165  1_556   S
    O31    Ca6       2.47518  1_655   S
    O31    Ca3       2.34451  1_655   S
    O33    Ca6       2.38095      .   S
    O34    Ca6       2.38039  1_665   S
    O35    Ca6       2.44374  1_565   S
    O35    Ca3       2.33636  1_565   S
    O13    Ca0       2.47548  1_455   S
    O13    Ca4       2.34684      .   S
    O15    Ca0       2.38141      .   S
    O16    Ca0       2.38028  1_455   S
    O39    Ca0       2.44840      .   S
    O39    Ca4       2.34549  1_655   S
    O43    Ca1       2.47456  1_455   S
    O43    Ca3       2.34521  1_565   S
    O45    Ca1       2.38095      .   S
    O46    Ca1       2.38037  1_445   S
    O47    Ca1       2.45000  1_545   S
    O47    Ca3       2.34449  1_655   S
    O51    Ca2       2.47488  1_655   S
    O51    Ca4       2.34508  1_656   S
    O53    Ca2       2.38122      .   S
    O54    Ca2       2.38002  1_655   S
    O55    Ca2       2.44300      .   S
    O55    Ca4       2.33516  1_556   S
    C10    Og58      0.49760      .   S
    C11    Og59      0.49819      .   S
    C12    Og60      0.49752      .   S
    C17    Og61      0.49372      .   S
    C18    Og62      0.49760      .   S
    C19    Og63      0.49819      .   S
    C20    Og64      0.49750      .   S
    C21    Og65      0.49369      .   S
    C22    Og66      0.49759      .   S
    C23    Og67      0.49819      .   S
    C24    Og68      0.49769      .   S
    C25    Og69      0.49367      .   S
    C26    Og70      0.49764      .   S
    C27    Og71      0.49814      .   S
    C28    Og72      0.49751      .   S
    C29    Og73      0.49371      .   S
