# CIF file generated by openbabel 2.4.90, see http://openbabel.sf.net
data_I
_chemical_name_common ''
_cell_length_a 13.968
_cell_length_b 14.562
_cell_length_c 24.165
_cell_angle_alpha 89.979
_cell_angle_beta 90.005
_cell_angle_gamma 116.971
_space_group_name_H-M_alt 'P 1'
_space_group_name_Hall 'P 1'
loop_
    _symmetry_equiv_pos_as_xyz
    x,y,z
loop_
    _atom_site_label
    _atom_site_type_symbol
    _atom_site_fract_x
    _atom_site_fract_y
    _atom_site_fract_z
    _atom_site_occupancy
    N0      N    0.28449   0.61817   0.49460   1.000
    N1      N    0.71544   0.88217   0.99463   1.000
    N2      N    0.28463   0.11778   0.00544   1.000
    N3      N    0.71558   0.38184   0.50545   1.000
    Zr4     Zr   0.99862   0.00000   0.50004   1.000
    O5      O    0.90371   0.13642   0.52406   1.000
    O6      O    0.87338   0.94546   0.30332   1.000
    O7      O    0.24752   0.86124   0.48262   1.000
    O8      O    0.09496   0.21151   0.47584   1.000
    O9      O    0.09495   0.86359   0.47601   1.000
    O10     O    0.12528   0.05453   0.69675   1.000
    O11     O    0.90369   0.78850   0.52422   1.000
    O12     O    0.75114   0.13876   0.51746   1.000
    Zr13    Zr   0.99862   0.49998   0.00004   1.000
    O14     O    0.12519   0.55470   0.80331   1.000
    O15     O    0.09506   0.71129   0.02425   1.000
    O16     O    0.90367   0.63659   0.97606   1.000
    O17     O    0.09499   0.36338   0.02402   1.000
    O18     O    0.24757   0.36106   0.01746   1.000
    O19     O    0.90359   0.28867   0.97584   1.000
    O20     O    0.75108   0.63891   0.98262   1.000
    O21     O    0.87345   0.44528   0.19677   1.000
loop_
    _geom_bond_atom_site_label_1
    _geom_bond_atom_site_label_2
    _geom_bond_distance
    _geom_bond_site_symmetry_2
    _ccdc_geom_bond_type
    Zr4    O5        2.90350      .   S
    N3     O5        5.32887      .   S
    Zr4    O6        5.00293  1_545   S
    N1     O6        7.71495  1_556   S
    Zr4    O7        4.76653  1_645   S
    N0     O7        3.81264      .   S
    Zr4    O8        2.80684  1_655   S
    N0     O8        5.29746      .   S
    Zr4    O9        2.91867  1_645   S
    N0     O9        5.34453      .   S
    Zr4    O10       5.00839  1_655   S
    N2     O10       7.71932  1_554   S
    Zr4    O11       2.80713  1_545   S
    N3     O11       5.29765      .   S
    Zr4    O12       4.74835      .   S
    N3     O12       3.80181      .   S
    Zr13   O14       5.00827  1_654   S
    N0     O14       7.71948      .   S
    Zr13   O15       2.80470  1_655   S
    N2     O15       5.29503  1_545   S
    Zr13   O16       2.90584  1_554   S
    N1     O16       5.33227      .   S
    Zr13   O17       2.92110  1_655   S
    N2     O17       5.34816      .   S
    Zr13   O18       4.76891  1_655   S
    N2     O18       3.81655      .   S
    Zr13   O19       2.80514  1_554   S
    N1     O19       5.29524  1_565   S
    Zr13   O20       4.75068  1_554   S
    N1     O20       3.80538      .   S
    Zr13   O21       5.00252      .   S
    N3     O21       7.71421      .   S
