# CIF file generated by openbabel 2.4.90, see http://openbabel.sf.net
data_I
_chemical_name_common ''
_cell_length_a 13.968
_cell_length_b 14.562
_cell_length_c 24.165
_cell_angle_alpha 89.979
_cell_angle_beta 90.005
_cell_angle_gamma 116.971
_space_group_name_H-M_alt 'P 1'
_space_group_name_Hall 'P 1'
loop_
    _symmetry_equiv_pos_as_xyz
    x,y,z
loop_
    _atom_site_label
    _atom_site_type_symbol
    _atom_site_fract_x
    _atom_site_fract_y
    _atom_site_fract_z
    _atom_site_occupancy
    C0      C    0.02383   0.02082   0.64880   1.000
    C1      C    0.97638   0.47867   0.14880   1.000
    C2      C    0.97626   0.97919   0.35127   1.000
    C3      C    0.02369   0.52129   0.85129   1.000
    C4      C    0.00003   0.00002   0.50004   1.000
    C5      C    0.00001   0.49999   0.00000   1.000
    C6      C    0.71217   0.38570   0.50394   1.000
    C7      C    0.28807   0.11396   0.00391   1.000
    C8      C    0.28791   0.61432   0.49614   1.000
    C9      C    0.71200   0.88599   0.99617   1.000
    C10     C    0.85349   0.41428   0.60400   1.000
    C11     C    0.93381   0.30686   0.64454   1.000
    C12     C    0.81155   0.09652   0.50796   1.000
    C13     C    0.72878   0.20047   0.46820   1.000
    C14     C    0.59396   0.21424   0.58216   1.000
    C15     C    0.40458   0.12133   0.61232   1.000
    C16     C    0.31927   0.30099   0.49940   1.000
    C17     C    0.51065   0.40406   0.47437   1.000
    C18     C    0.88279   0.59099   0.46307   1.000
    C19     C    0.97111   0.76353   0.50510   1.000
    C20     C    0.76637   0.65461   0.64749   1.000
    C21     C    0.67471   0.47913   0.60582   1.000
    C22     C    0.56299   0.32703   0.40313   1.000
    C23     C    0.59735   0.33423   0.30245   1.000
    C24     C    0.93615   0.45394   0.33309   1.000
    C25     C    0.90300   0.44327   0.43406   1.000
    C26     C    0.73304   0.36827   0.17784   1.000
    C27     C    0.14687   0.08545   0.10449   1.000
    C28     C    0.06649   0.19282   0.14440   1.000
    C29     C    0.18831   0.40294   0.00771   1.000
    C30     C    0.27110   0.29904   0.96804   1.000
    C31     C    0.40614   0.28530   0.08216   1.000
    C32     C    0.59547   0.37821   0.11236   1.000
    C33     C    0.68100   0.19884   0.99942   1.000
    C34     C    0.48966   0.09577   0.97437   1.000
    C35     C    0.11713   0.90875   0.96323   1.000
    C36     C    0.02887   0.73620   0.00530   1.000
    C37     C    0.23427   0.84486   0.14743   1.000
    C38     C    0.32585   0.02040   0.10573   1.000
    C39     C    0.43729   0.17264   0.90308   1.000
    C40     C    0.40293   0.16540   0.80241   1.000
    C41     C    0.06412   0.04559   0.83306   1.000
    C42     C    0.09727   0.05631   0.93403   1.000
    C43     C    0.26714   0.13135   0.67779   1.000
    C44     C    0.14660   0.58574   0.39559   1.000
    C45     C    0.06628   0.69315   0.35554   1.000
    C46     C    0.18849   0.90349   0.49211   1.000
    C47     C    0.27126   0.79955   0.53184   1.000
    C48     C    0.40612   0.78578   0.41792   1.000
    C49     C    0.59550   0.87869   0.38770   1.000
    C50     C    0.68079   0.69902   0.50070   1.000
    C51     C    0.48941   0.59595   0.52571   1.000
    C52     C    0.11729   0.40902   0.53702   1.000
    C53     C    0.02896   0.23648   0.49499   1.000
    C54     C    0.23367   0.34541   0.35200   1.000
    C55     C    0.32535   0.52088   0.39426   1.000
    C56     C    0.43709   0.67297   0.59697   1.000
    C57     C    0.40271   0.66574   0.69764   1.000
    C58     C    0.06393   0.54609   0.66699   1.000
    C59     C    0.09709   0.55678   0.56602   1.000
    C60     C    0.26696   0.63167   0.82226   1.000
    C61     C    0.85318   0.91449   0.89559   1.000
    C62     C    0.93357   0.80714   0.85561   1.000
    C63     C    0.81179   0.59702   0.99238   1.000
    C64     C    0.72899   0.70092   0.03205   1.000
    C65     C    0.59391   0.71465   0.91792   1.000
    C66     C    0.40456   0.62175   0.88774   1.000
    C67     C    0.31909   0.80114   0.00000   1.000
    C68     C    0.51044   0.90422   0.02570   1.000
    C69     C    0.88291   0.09120   0.03688   1.000
    C70     C    0.97118   0.26377   0.99482   1.000
    C71     C    0.76585   0.15511   0.85267   1.000
    C72     C    0.67426   0.97957   0.89430   1.000
    C73     C    0.56276   0.82733   0.09701   1.000
    C74     C    0.59714   0.83459   0.19768   1.000
    C75     C    0.93594   0.95433   0.16702   1.000
    C76     C    0.90278   0.94360   0.06605   1.000
    C77     C    0.73299   0.86870   0.32231   1.000
    C78     C    0.78430   0.31495   0.53364   1.000
    C79     C    0.84342   0.34435   0.58320   1.000
    C80     C    0.88892   0.28503   0.60580   1.000
    C81     C    0.87736   0.19541   0.57877   1.000
    C82     C    0.81981   0.16591   0.52896   1.000
    C83     C    0.77364   0.22483   0.50695   1.000
    C84     C    0.92666   0.13222   0.60266   1.000
    C85     C    0.56732   0.31543   0.52531   1.000
    C86     C    0.53490   0.23556   0.56458   1.000
    C87     C    0.42806   0.18245   0.58151   1.000
    C88     C    0.34980   0.20474   0.55744   1.000
    C89     C    0.38052   0.28406   0.51812   1.000
    C90     C    0.48827   0.34036   0.50358   1.000
    C91     C    0.23365   0.14168   0.57114   1.000
    C92     C    0.77285   0.52083   0.53163   1.000
    C93     C    0.85620   0.60294   0.50364   1.000
    C94     C    0.90623   0.70092   0.52692   1.000
    C95     C    0.87445   0.71962   0.57890   1.000
    C96     C    0.79069   0.63899   0.60710   1.000
    C97     C    0.74036   0.54102   0.58356   1.000
    C98     C    0.92944   0.82469   0.60380   1.000
    C99     C    0.73039   0.38736   0.42662   1.000
    C100    C    0.64537   0.35587   0.38843   1.000
    C101    C    0.66396   0.35940   0.33158   1.000
    C102    C    0.76915   0.39594   0.31154   1.000
    C103    C    0.85491   0.42686   0.34907   1.000
    C104    C    0.83536   0.42145   0.40568   1.000
    C105    C    0.79283   0.40266   0.25151   1.000
    C106    C    0.21585   0.18468   0.03354   1.000
    C107    C    0.15683   0.15532   0.08314   1.000
    C108    C    0.11130   0.21462   0.10574   1.000
    C109    C    0.12272   0.30417   0.07862   1.000
    C110    C    0.18015   0.33361   0.02870   1.000
    C111    C    0.22634   0.27471   0.00670   1.000
    C112    C    0.07346   0.36736   0.10252   1.000
    C113    C    0.43289   0.18425   0.02530   1.000
    C114    C    0.46524   0.26404   0.06459   1.000
    C115    C    0.57205   0.31715   0.08154   1.000
    C116    C    0.65036   0.29495   0.05748   1.000
    C117    C    0.61972   0.21570   0.01814   1.000
    C118    C    0.51198   0.15940   0.00358   1.000
    C119    C    0.76651   0.35803   0.07118   1.000
    C120    C    0.22740   0.97879   0.03165   1.000
    C121    C    0.14388   0.89674   0.00375   1.000
    C122    C    0.09388   0.79875   0.02706   1.000
    C123    C    0.12586   0.77998   0.07901   1.000
    C124    C    0.20980   0.86054   0.10713   1.000
    C125    C    0.26008   0.95853   0.08353   1.000
    C126    C    0.07093   0.67486   0.10390   1.000
    C127    C    0.26989   0.11228   0.92658   1.000
    C128    C    0.35490   0.14376   0.88839   1.000
    C129    C    0.33631   0.14022   0.83150   1.000
    C130    C    0.23112   0.10366   0.81150   1.000
    C131    C    0.14536   0.07271   0.84904   1.000
    C132    C    0.16492   0.07814   0.90565   1.000
    C133    C    0.20741   0.09697   0.75148   1.000
    C134    C    0.21577   0.68507   0.46645   1.000
    C135    C    0.15667   0.65567   0.41688   1.000
    C136    C    0.11116   0.71499   0.39424   1.000
    C137    C    0.12271   0.80460   0.42130   1.000
    C138    C    0.18024   0.83410   0.47111   1.000
    C139    C    0.22641   0.77519   0.49313   1.000
    C140    C    0.07341   0.86778   0.39740   1.000
    C141    C    0.43275   0.68458   0.47477   1.000
    C142    C    0.46518   0.76445   0.43550   1.000
    C143    C    0.57202   0.81756   0.41857   1.000
    C144    C    0.65027   0.79527   0.44265   1.000
    C145    C    0.61955   0.71594   0.48197   1.000
    C146    C    0.51179   0.65965   0.49651   1.000
    C147    C    0.76644   0.85833   0.42896   1.000
    C148    C    0.22722   0.47918   0.46846   1.000
    C149    C    0.14387   0.39707   0.49640   1.000
    C150    C    0.09383   0.29909   0.47316   1.000
    C151    C    0.12560   0.28040   0.42115   1.000
    C152    C    0.20937   0.36103   0.39294   1.000
    C153    C    0.25970   0.45900   0.41652   1.000
    C154    C    0.07062   0.17532   0.39620   1.000
    C155    C    0.26970   0.61267   0.57347   1.000
    C156    C    0.35471   0.64413   0.61166   1.000
    C157    C    0.33611   0.64059   0.66850   1.000
    C158    C    0.23091   0.60406   0.68855   1.000
    C159    C    0.14517   0.57315   0.65101   1.000
    C160    C    0.16473   0.57858   0.59440   1.000
    C161    C    0.20721   0.59731   0.74857   1.000
    C162    C    0.78422   0.81527   0.96655   1.000
    C163    C    0.84323   0.84463   0.91695   1.000
    C164    C    0.88877   0.78534   0.89434   1.000
    C165    C    0.87737   0.69580   0.92147   1.000
    C166    C    0.81993   0.66635   0.97132   1.000
    C167    C    0.77374   0.72524   0.99331   1.000
    C168    C    0.92663   0.63261   0.89755   1.000
    C169    C    0.56719   0.81572   0.97478   1.000
    C170    C    0.53482   0.73592   0.93550   1.000
    C171    C    0.42800   0.68281   0.91856   1.000
    C172    C    0.34970   0.70502   0.94260   1.000
    C173    C    0.38037   0.78428   0.98196   1.000
    C174    C    0.48810   0.84058   0.99651   1.000
    C175    C    0.23355   0.64194   0.92894   1.000
    C176    C    0.77268   0.02116   0.96844   1.000
    C177    C    0.85618   0.10321   0.99635   1.000
    C178    C    0.90619   0.20121   0.97306   1.000
    C179    C    0.87423   0.21999   0.92110   1.000
    C180    C    0.79031   0.13942   0.89290   1.000
    C181    C    0.74003   0.04143   0.91656   1.000
    C182    C    0.92917   0.32511   0.89621   1.000
    C183    C    0.73016   0.88766   0.07350   1.000
    C184    C    0.64515   0.85620   0.11170   1.000
    C185    C    0.66375   0.85975   0.16855   1.000
    C186    C    0.76894   0.89630   0.18858   1.000
    C187    C    0.85469   0.92723   0.15104   1.000
    C188    C    0.83513   0.92178   0.09443   1.000
    C189    C    0.79268   0.90301   0.24860   1.000
    C190    C    0.96114   0.14723   0.65203   1.000
    C191    C    0.93292   0.06243   0.57193   1.000
    C192    C    0.16574   0.12282   0.53301   1.000
    C193    C    0.20723   0.10788   0.62119   1.000
    C194    C    0.90571   0.84102   0.65227   1.000
    C195    C    0.00000   0.89808   0.57473   1.000
    C196    C    0.88723   0.44521   0.23395   1.000
    C197    C    0.70802   0.36102   0.21857   1.000
    C198    C    0.00000   0.35221   0.15190   1.000
    C199    C    0.06726   0.43728   0.07185   1.000
    C200    C    0.83442   0.37705   0.03304   1.000
    C201    C    0.79291   0.39170   0.12124   1.000
    C202    C    0.09490   0.65837   0.15226   1.000
    C203    C    0.99802   0.60159   0.07486   1.000
    C204    C    0.11299   0.05452   0.73395   1.000
    C205    C    0.29219   0.13858   0.71851   1.000
    C206    C    0.00000   0.85277   0.34803   1.000
    C207    C    0.06713   0.93758   0.42812   1.000
    C208    C    0.83432   0.87719   0.46710   1.000
    C209    C    0.79287   0.89213   0.37891   1.000
    C210    C    0.09433   0.15901   0.34781   1.000
    C211    C    0.99797   0.10193   0.42536   1.000
    C212    C    0.11279   0.55476   0.76611   1.000
    C213    C    0.29199   0.63891   0.78154   1.000
    C214    C    0.96118   0.64781   0.84819   1.000
    C215    C    0.93279   0.56265   0.92821   1.000
    C216    C    0.16566   0.62294   0.96700   1.000
    C217    C    0.20713   0.60827   0.87888   1.000
    C218    C    0.90523   0.34160   0.84785   1.000
    C219    C    0.00000   0.39838   0.92526   1.000
    C220    C    0.88712   0.94543   0.26611   1.000
    C221    C    0.70792   0.86147   0.28159   1.000
    O222    O    0.34973   0.79271   0.99098   1.000
    O223    O    0.56585   0.18755   0.01086   1.000
    O224    O    0.47243   0.17182   0.01444   1.000
    O225    O    0.50082   0.12758   0.98898   1.000
    O226    O    0.11888   0.84775   0.01541   1.000
    O227    O    0.18564   0.93777   0.01770   1.000
    O228    O    0.13051   0.90274   0.98349   1.000
    O229    O    0.36048   0.14910   0.01461   1.000
    O230    O    0.25773   0.04638   0.01778   1.000
    O231    O    0.25196   0.14932   0.01873   1.000
    O232    O    0.27898   0.11312   0.96525   1.000
    O233    O    0.06137   0.76747   0.01618   1.000
    O234    O    0.20325   0.30416   0.01770   1.000
    O235    O    0.22110   0.22969   0.02012   1.000
    O236    O    0.24872   0.28687   0.98737   1.000
    O237    O    0.18423   0.36828   0.01821   1.000
    O238    O    0.63504   0.25532   0.03781   1.000
    O239    O    0.65036   0.20727   0.00878   1.000
    O240    O    0.44906   0.22414   0.04495   1.000
    O241    O    0.49927   0.87240   0.01111   1.000
    O242    O    0.10987   0.78936   0.05304   1.000
    O243    O    0.15144   0.31889   0.05366   1.000
    O244    O    0.24374   0.96866   0.05759   1.000
    O245    O    0.75136   0.71308   0.01268   1.000
    O246    O    0.80047   0.36754   0.05211   1.000
    O247    O    0.91722   0.43852   0.01652   1.000
    O248    O    0.18634   0.17000   0.05834   1.000
    O249    O    0.86955   0.09721   0.01662   1.000
    O250    O    0.70843   0.32649   0.06433   1.000
    O251    O    0.61121   0.30605   0.06951   1.000
    O252    O    0.51865   0.29059   0.07307   1.000
    O253    O    0.43569   0.27467   0.07338   1.000
    O254    O    0.86895   0.93269   0.08024   1.000
    O255    O    0.77971   0.37486   0.09621   1.000
    O256    O    0.07036   0.40232   0.08719   1.000
    O257    O    0.78265   0.90472   0.08397   1.000
    O258    O    0.68766   0.87193   0.09260   1.000
    O259    O    0.72108   0.88682   0.03484   1.000
    O260    O    0.03447   0.63822   0.08938   1.000
    O261    O    0.09809   0.33576   0.09057   1.000
    O262    O    0.11701   0.25939   0.09218   1.000
    O263    O    0.09839   0.72742   0.09146   1.000
    O264    O    0.16783   0.82026   0.09307   1.000
    O265    O    0.58376   0.34768   0.09695   1.000
    O266    O    0.15185   0.12039   0.09382   1.000
    O267    O    0.13407   0.18497   0.09444   1.000
    O268    O    0.29296   0.98947   0.09463   1.000
    O269    O    0.23494   0.90954   0.09533   1.000
    O270    O    0.84491   0.92450   0.12274   1.000
    O271    O    0.60396   0.84176   0.10436   1.000
    O272    O    0.03673   0.35978   0.12721   1.000
    O273    O    0.08291   0.66661   0.12808   1.000
    O274    O    0.08890   0.20372   0.12507   1.000
    O275    O    0.22203   0.85270   0.12728   1.000
    O276    O    0.65445   0.85797   0.14013   1.000
    O277    O    0.98819   0.41544   0.15035   1.000
    O278    O    0.93180   0.46194   0.19138   1.000
    O279    O    0.89531   0.94078   0.15903   1.000
    O280    O    0.81182   0.91176   0.16981   1.000
    O281    O    0.71635   0.87803   0.17857   1.000
    O282    O    0.63044   0.84717   0.18312   1.000
    O283    O    0.72053   0.36464   0.19821   1.000
    O284    O    0.78081   0.89965   0.21859   1.000
    O285    O    0.75042   0.38184   0.23504   1.000
    O286    O    0.84003   0.42393   0.24273   1.000
    O287    O    0.83990   0.92422   0.25736   1.000
    O288    O    0.75030   0.88224   0.26510   1.000
    O289    O    0.78099   0.39930   0.28153   1.000
    O290    O    0.93169   0.96231   0.30869   1.000
    O291    O    0.72046   0.86508   0.30195   1.000
    O292    O    0.63066   0.34682   0.31702   1.000
    O293    O    0.71656   0.37767   0.32156   1.000
    O294    O    0.81203   0.41140   0.33031   1.000
    O295    O    0.65467   0.35764   0.36001   1.000
    O296    O    0.89553   0.44040   0.34108   1.000
    O297    O    0.08247   0.16717   0.37201   1.000
    O298    O    0.98813   0.91598   0.34965   1.000
    O299    O    0.03671   0.86027   0.37272   1.000
    O300    O    0.84513   0.42416   0.37738   1.000
    O301    O    0.22152   0.35322   0.37247   1.000
    O302    O    0.08872   0.70407   0.37489   1.000
    O303    O    0.77965   0.87523   0.40394   1.000
    O304    O    0.58376   0.84812   0.40314   1.000
    O305    O    0.60418   0.34145   0.39578   1.000
    O306    O    0.68788   0.37162   0.40753   1.000
    O307    O    0.23453   0.41001   0.40473   1.000
    O308    O    0.16748   0.32072   0.40705   1.000
    O309    O    0.13391   0.68533   0.40556   1.000
    O310    O    0.11694   0.75979   0.40777   1.000
    O311    O    0.29252   0.48994   0.40539   1.000
    O312    O    0.15164   0.62071   0.40624   1.000
    O313    O    0.09811   0.22786   0.40868   1.000
    O314    O    0.03429   0.13863   0.41078   1.000
    O315    O    0.09806   0.83619   0.40935   1.000
    O316    O    0.07027   0.90268   0.41276   1.000
    O317    O    0.78287   0.40440   0.41615   1.000
    O318    O    0.86918   0.43236   0.41987   1.000
    O319    O    0.24346   0.46909   0.44249   1.000
    O320    O    0.18622   0.67037   0.44167   1.000
    O321    O    0.43565   0.77511   0.42671   1.000
    O322    O    0.51860   0.79100   0.42704   1.000
    O323    O    0.61115   0.80642   0.43061   1.000
    O324    O    0.10971   0.28975   0.44716   1.000
    O325    O    0.15148   0.81935   0.44621   1.000
    O326    O    0.72128   0.38653   0.46528   1.000
    O327    O    0.70835   0.82680   0.43581   1.000
    O328    O    0.80038   0.86776   0.44803   1.000
    O329    O    0.44897   0.72452   0.45514   1.000
    O330    O    0.63491   0.75561   0.46231   1.000
    O331    O    0.86949   0.59697   0.48336   1.000
    O332    O    0.22109   0.73013   0.47979   1.000
    O333    O    0.25184   0.64969   0.48130   1.000
    O334    O    0.91717   0.93860   0.48357   1.000
    O335    O    0.75121   0.21265   0.48758   1.000
    O336    O    0.25757   0.54675   0.48230   1.000
    O337    O    0.18555   0.43812   0.48243   1.000
    O338    O    0.18437   0.86879   0.48161   1.000
    O339    O    0.20333   0.80464   0.48212   1.000
    O340    O    0.06140   0.26779   0.48408   1.000
    O341    O    0.11885   0.34808   0.48478   1.000
    O342    O    0.49946   0.37221   0.48898   1.000
    O343    O    0.36033   0.64945   0.48546   1.000
    O344    O    0.47227   0.67211   0.48564   1.000
    O345    O    0.56567   0.68780   0.48924   1.000
    O346    O    0.65017   0.70748   0.49134   1.000
    O347    O    0.24884   0.78737   0.51249   1.000
    O348    O    0.27881   0.61349   0.53481   1.000
    O349    O    0.13058   0.40305   0.51671   1.000
    O350    O    0.50060   0.62780   0.51111   1.000
    O351    O    0.34990   0.29253   0.50876   1.000
    O352    O    0.08289   0.06142   0.51653   1.000
    O353    O    0.43440   0.31221   0.51085   1.000
    O354    O    0.52780   0.32790   0.51445   1.000
    O355    O    0.88122   0.65193   0.51528   1.000
    O356    O    0.81452   0.56189   0.51764   1.000
    O357    O    0.63974   0.35057   0.51463   1.000
    O358    O    0.74251   0.45327   0.51779   1.000
    O359    O    0.74823   0.35032   0.51879   1.000
    O360    O    0.93867   0.73223   0.51601   1.000
    O361    O    0.79672   0.19537   0.51796   1.000
    O362    O    0.77897   0.26989   0.52030   1.000
    O363    O    0.81568   0.13122   0.51846   1.000
    O364    O    0.36516   0.24440   0.53778   1.000
    O365    O    0.55111   0.27550   0.54495   1.000
    O366    O    0.89034   0.71027   0.55291   1.000
    O367    O    0.84858   0.18066   0.55387   1.000
    O368    O    0.75660   0.53093   0.55760   1.000
    O369    O    0.19969   0.13225   0.55208   1.000
    O370    O    0.81386   0.32965   0.55842   1.000
    O371    O    0.29172   0.17321   0.56429   1.000
    O372    O    0.38893   0.19359   0.56948   1.000
    O373    O    0.48148   0.20901   0.57305   1.000
    O374    O    0.56443   0.22490   0.57337   1.000
    O375    O    0.13091   0.56768   0.58021   1.000
    O376    O    0.22044   0.12478   0.59617   1.000
    O377    O    0.92979   0.09732   0.58730   1.000
    O378    O    0.21722   0.59562   0.58394   1.000
    O379    O    0.31220   0.62840   0.59257   1.000
    O380    O    0.96472   0.86139   0.58927   1.000
    O381    O    0.90201   0.16381   0.59072   1.000
    O382    O    0.88314   0.24022   0.59229   1.000
    O383    O    0.90195   0.77215   0.59135   1.000
    O384    O    0.83257   0.67930   0.59300   1.000
    O385    O    0.41632   0.15189   0.59692   1.000
    O386    O    0.84846   0.37931   0.59360   1.000
    O387    O    0.86617   0.31469   0.59450   1.000
    O388    O    0.70754   0.51008   0.59469   1.000
    O389    O    0.76552   0.59000   0.59533   1.000
    O390    O    0.15495   0.57587   0.62271   1.000
    O391    O    0.39590   0.65855   0.60432   1.000
    O392    O    0.94390   0.13972   0.62735   1.000
    O393    O    0.91757   0.83285   0.62804   1.000
    O394    O    0.91137   0.29594   0.62517   1.000
    O395    O    0.77853   0.64680   0.62730   1.000
    O396    O    0.34541   0.64236   0.64008   1.000
    O397    O    0.99248   0.08402   0.65042   1.000
    O398    O    0.06841   0.03767   0.69138   1.000
    O399    O    0.10455   0.55962   0.65900   1.000
    O400    O    0.18804   0.58861   0.66978   1.000
    O401    O    0.28351   0.62232   0.67853   1.000
    O402    O    0.36941   0.65316   0.68307   1.000
    O403    O    0.27966   0.13496   0.69815   1.000
    O404    O    0.21906   0.60068   0.71856   1.000
    O405    O    0.24980   0.11778   0.73500   1.000
    O406    O    0.16020   0.07575   0.74272   1.000
    O407    O    0.16000   0.57603   0.75734   1.000
    O408    O    0.24960   0.61811   0.76506   1.000
    O409    O    0.21926   0.10031   0.78149   1.000
    O410    O    0.06824   0.53802   0.80870   1.000
    O411    O    0.27947   0.63529   0.80190   1.000
    O412    O    0.36962   0.15281   0.81696   1.000
    O413    O    0.28371   0.12194   0.82150   1.000
    O414    O    0.18824   0.08818   0.83027   1.000
    O415    O    0.34561   0.14199   0.85995   1.000
    O416    O    0.10474   0.05915   0.84105   1.000
    O417    O    0.91720   0.33335   0.87203   1.000
    O418    O    0.99244   0.58455   0.84974   1.000
    O419    O    0.94390   0.64021   0.87287   1.000
    O420    O    0.15514   0.07542   0.87735   1.000
    O421    O    0.77808   0.14727   0.87279   1.000
    O422    O    0.91117   0.79624   0.87498   1.000
    O423    O    0.22034   0.62510   0.90391   1.000
    O424    O    0.41628   0.65228   0.90315   1.000
    O425    O    0.39610   0.15820   0.89574   1.000
    O426    O    0.31240   0.12802   0.90749   1.000
    O427    O    0.76517   0.09043   0.90473   1.000
    O428    O    0.83227   0.17971   0.90700   1.000
    O429    O    0.70714   0.01050   0.90543   1.000
    O430    O    0.86600   0.81498   0.90565   1.000
    O431    O    0.88307   0.74057   0.90791   1.000
    O432    O    0.84821   0.87956   0.90627   1.000
    O433    O    0.90170   0.27255   0.90866   1.000
    O434    O    0.96459   0.36175   0.91074   1.000
    O435    O    0.90200   0.66420   0.90951   1.000
    O436    O    0.92971   0.59763   0.91288   1.000
    O437    O    0.21740   0.09521   0.91612   1.000
    O438    O    0.13109   0.06723   0.91984   1.000
    O439    O    0.75635   0.03130   0.94250   1.000
    O440    O    0.81373   0.82995   0.94175   1.000
    O441    O    0.56437   0.72529   0.92671   1.000
    O442    O    0.48141   0.70937   0.92703   1.000
    O443    O    0.38885   0.69392   0.93058   1.000
    O444    O    0.89021   0.21060   0.94708   1.000
    O445    O    0.84865   0.68107   0.94640   1.000
    O446    O    0.29163   0.67348   0.93577   1.000
    O447    O    0.19960   0.63244   0.94797   1.000
    O448    O    0.55100   0.77582   0.95514   1.000
    O449    O    0.36503   0.74465   0.96228   1.000
    O450    O    0.77898   0.77026   0.97993   1.000
    O451    O    0.74811   0.85063   0.98136   1.000
    O452    O    0.08283   0.56147   0.98350   1.000
    O453    O    0.74234   0.95357   0.98231   1.000
    O454    O    0.81443   0.06219   0.98240   1.000
    O455    O    0.81586   0.63168   0.98185   1.000
    O456    O    0.79684   0.69580   0.98232   1.000
    O457    O    0.93868   0.23249   0.98394   1.000
    O458    O    0.88118   0.15221   0.98471   1.000
    O459    O    0.63960   0.85085   0.98548   1.000
    O460    O    0.52764   0.82815   0.98565   1.000
    O461    O    0.43423   0.81243   0.98924   1.000
    O462    O    0.97837   0.04162   0.61037   1.000
    O463    O    0.96647   0.03122   0.53599   1.000
    O464    O    0.11553   0.06435   0.63500   1.000
    O465    O    0.96477   0.93092   0.65054   1.000
    O466    O    0.01191   0.95945   0.61177   1.000
    O467    O    0.00002   0.94905   0.53739   1.000
    O468    O    0.02182   0.45798   0.11033   1.000
    O469    O    0.03364   0.46864   0.03593   1.000
    O470    O    0.88464   0.43518   0.13502   1.000
    O471    O    0.03564   0.56852   0.15053   1.000
    O472    O    0.98720   0.54013   0.11183   1.000
    O473    O    0.99901   0.55079   0.03743   1.000
    O474    O    0.02170   0.95839   0.38970   1.000
    O475    O    0.03358   0.96880   0.46408   1.000
    O476    O    0.88456   0.93566   0.36509   1.000
    O477    O    0.03529   0.06910   0.34954   1.000
    O478    O    0.98711   0.04056   0.38832   1.000
    O479    O    0.99900   0.05097   0.46270   1.000
    O480    O    0.97824   0.54197   0.88975   1.000
    O481    O    0.96640   0.53132   0.96411   1.000
    O482    O    0.11541   0.56478   0.86509   1.000
    O483    O    0.96446   0.43144   0.84957   1.000
    O484    O    0.01185   0.45984   0.88828   1.000
    O485    O    0.00001   0.44919   0.96263   1.000
loop_
    _geom_bond_atom_site_label_1
    _geom_bond_atom_site_label_2
    _geom_bond_distance
    _geom_bond_site_symmetry_2
    _ccdc_geom_bond_type
    C67    O222      0.54171  1_554   S
    C173   O222      0.54171      .   S
    C118   O223      0.69668      .   S
    C117   O223      0.69668      .   S
    C118   O224      0.70534      .   S
    C113   O224      0.70534      .   S
    C118   O225      0.54598  1_554   S
    C34    O225      0.54598      .   S
    C121   O226      0.69580      .   S
    C122   O226      0.69580      .   S
    C121   O227      0.70344      .   S
    C120   O227      0.70344      .   S
    C121   O228      0.54498  1_554   S
    C35    O228      0.54498      .   S
    C7     O229      0.93926      .   S
    C113   O229      0.93926      .   S
    C7     O230      0.93914      .   S
    C120   O230      0.93914  1_565   S
    C7     O231      0.93985      .   S
    C106   O231      0.93985      .   S
    C7     O232      0.94225  1_554   S
    C127   O232      0.94225      .   S
    C36    O233      0.54334      .   S
    C122   O233      0.54334      .   S
    C111   O234      0.69585      .   S
    C110   O234      0.69585      .   S
    C111   O235      0.70465      .   S
    C106   O235      0.70465      .   S
    C111   O236      0.54500  1_554   S
    C30    O236      0.54500      .   S
    C29    O237      0.54430      .   S
    C110   O237      0.54430      .   S
    C117   O238      0.70202      .   S
    C116   O238      0.70202      .   S
    C117   O239      0.54509      .   S
    C33    O239      0.54509  1_556   S
    C113   O240      0.70359      .   S
    C114   O240      0.70359      .   S
    C68    O241      0.54585      .   S
    C174   O241      0.54585  1_556   S
    C122   O242      0.70012      .   S
    C123   O242      0.70012      .   S
    C110   O243      0.70186      .   S
    C109   O243      0.70186      .   S
    C120   O244      0.70512      .   S
    C125   O244      0.70512      .   S
    C64    O245      0.54581      .   S
    C167   O245      0.54581  1_556   S
    C200   O246      0.63003      .   S
    C119   O246      0.63003      .   S
    C200   O247      1.16570      .   S
    C5     O247      1.16570  1_455   S
    C106   O248      0.70340      .   S
    C107   O248      0.70340      .   S
    C69    O249      0.54505      .   S
    C177   O249      0.54505  1_556   S
    C116   O250      0.74728      .   S
    C119   O250      0.74728      .   S
    C116   O251      0.69997      .   S
    C115   O251      0.69997      .   S
    C114   O252      0.69740      .   S
    C115   O252      0.69740      .   S
    C114   O253      0.54535      .   S
    C31    O253      0.54535      .   S
    C76    O254      0.54581      .   S
    C188   O254      0.54581      .   S
    C119   O255      0.64732      .   S
    C201   O255      0.64732      .   S
    C199   O256      0.64670      .   S
    C112   O256      0.64670      .   S
    C183   O257      0.70566      .   S
    C188   O257      0.70566      .   S
    C183   O258      0.70326      .   S
    C184   O258      0.70326      .   S
    C183   O259      0.94223      .   S
    C9     O259      0.94223  1_556   S
    C203   O260      0.64862  1_655   S
    C126   O260      0.64862      .   S
    C109   O261      0.74641      .   S
    C112   O261      0.74641      .   S
    C109   O262      0.70109      .   S
    C108   O262      0.70109      .   S
    C123   O263      0.74625      .   S
    C126   O263      0.74625      .   S
    C123   O264      0.70099      .   S
    C124   O264      0.70099      .   S
    C115   O265      0.54519      .   S
    C32    O265      0.54519      .   S
    C107   O266      0.54591      .   S
    C27    O266      0.54591      .   S
    C107   O267      0.69763      .   S
    C108   O267      0.69763      .   S
    C125   O268      0.54613      .   S
    C38    O268      0.54613  1_545   S
    C125   O269      0.69733      .   S
    C124   O269      0.69733      .   S
    C188   O270      0.69510      .   S
    C187   O270      0.69510      .   S
    C73    O271      0.54506      .   S
    C184   O271      0.54506      .   S
    C112   O272      0.76159      .   S
    C198   O272      0.76159      .   S
    C126   O273      0.63407      .   S
    C202   O273      0.63407      .   S
    C108   O274      0.54427      .   S
    C28    O274      0.54427      .   S
    C124   O275      0.54498      .   S
    C37    O275      0.54498      .   S
    C184   O276      0.69735      .   S
    C185   O276      0.69735      .   S
    C1     O277      1.00710      .   S
    C198   O277      1.00710  1_455   S
    C1     O278      1.16954      .   S
    C196   O278      1.16954      .   S
    C187   O279      0.54462      .   S
    C75    O279      0.54462      .   S
    C187   O280      0.70195      .   S
    C186   O280      0.70195      .   S
    C185   O281      0.70130      .   S
    C186   O281      0.70130      .   S
    C185   O282      0.54454      .   S
    C74    O282      0.54454      .   S
    C26    O283      0.51685      .   S
    C197   O283      0.51685      .   S
    C186   O284      0.74056      .   S
    C189   O284      0.74056      .   S
    C197   O285      0.66204      .   S
    C105   O285      0.66204      .   S
    C196   O286      0.62478      .   S
    C105   O286      0.62478      .   S
    C189   O287      0.62481      .   S
    C220   O287      0.62481      .   S
    C189   O288      0.66205      .   S
    C221   O288      0.66205      .   S
    C105   O289      0.74058      .   S
    C102   O289      0.74058      .   S
    C220   O290      1.16962      .   S
    C2     O290      1.16962      .   S
    C221   O291      0.51684      .   S
    C77    O291      0.51684      .   S
    C23    O292      0.54458      .   S
    C101   O292      0.54458      .   S
    C102   O293      0.70130      .   S
    C101   O293      0.70130      .   S
    C102   O294      0.70194      .   S
    C103   O294      0.70194      .   S
    C101   O295      0.69736      .   S
    C100   O295      0.69736      .   S
    C24    O296      0.54462      .   S
    C103   O296      0.54462      .   S
    C210   O297      0.63347      .   S
    C154   O297      0.63347      .   S
    C206   O298      1.00738  1_455   S
    C2     O298      1.00738      .   S
    C206   O299      0.76144      .   S
    C140   O299      0.76144      .   S
    C103   O300      0.69509      .   S
    C104   O300      0.69509      .   S
    C54    O301      0.55137      .   S
    C152   O301      0.55137      .   S
    C45    O302      0.54498      .   S
    C136   O302      0.54498      .   S
    C209   O303      0.64734      .   S
    C147   O303      0.64734      .   S
    C49    O304      0.54570      .   S
    C143   O304      0.54570      .   S
    C100   O305      0.54507      .   S
    C22    O305      0.54507      .   S
    C100   O306      0.70324      .   S
    C99    O306      0.70324      .   S
    C152   O307      0.69730      .   S
    C153   O307      0.69730      .   S
    C152   O308      0.70104      .   S
    C151   O308      0.70104      .   S
    C136   O309      0.69766      .   S
    C135   O309      0.69766      .   S
    C136   O310      0.70112      .   S
    C137   O310      0.70112      .   S
    C55    O311      0.54601      .   S
    C153   O311      0.54601      .   S
    C44    O312      0.54589      .   S
    C135   O312      0.54589      .   S
    C154   O313      0.74654      .   S
    C151   O313      0.74654      .   S
    C154   O314      0.64891      .   S
    C211   O314      0.64891  1_655   S
    C140   O315      0.74639      .   S
    C137   O315      0.74639      .   S
    C140   O316      0.64679      .   S
    C207   O316      0.64679      .   S
    C104   O317      0.70571      .   S
    C99    O317      0.70571      .   S
    C104   O318      0.54582      .   S
    C25    O318      0.54582      .   S
    C153   O319      0.70513      .   S
    C148   O319      0.70513      .   S
    C135   O320      0.70343      .   S
    C134   O320      0.70343      .   S
    C48    O321      0.54535      .   S
    C142   O321      0.54535      .   S
    C143   O322      0.69741      .   S
    C142   O322      0.69741      .   S
    C143   O323      0.70000      .   S
    C144   O323      0.70000      .   S
    C151   O324      0.70006      .   S
    C150   O324      0.70006      .   S
    C137   O325      0.70111      .   S
    C138   O325      0.70111      .   S
    C99    O326      0.94219      .   S
    C6     O326      0.94219      .   S
    C147   O327      0.74729      .   S
    C144   O327      0.74729      .   S
    C147   O328      0.63003      .   S
    C208   O328      0.63003      .   S
    C142   O329      0.70353      .   S
    C141   O329      0.70353      .   S
    C144   O330      0.70198      .   S
    C145   O330      0.70198      .   S
    C18    O331      0.54504      .   S
    C93    O331      0.54504      .   S
    C134   O332      0.70418      .   S
    C139   O332      0.70418      .   S
    C134   O333      0.93977      .   S
    C8     O333      0.93977      .   S
    C208   O334      1.16574      .   S
    C4     O334      1.16574  1_445   S
    C13    O335      0.54632      .   S
    C83    O335      0.54632      .   S
    C148   O336      0.93891      .   S
    C8     O336      0.93891      .   S
    C148   O337      0.70318      .   S
    C149   O337      0.70318      .   S
    C138   O338      0.54467      .   S
    C46    O338      0.54467      .   S
    C138   O339      0.69577      .   S
    C139   O339      0.69577      .   S
    C150   O340      0.54337      .   S
    C53    O340      0.54337      .   S
    C150   O341      0.69561      .   S
    C149   O341      0.69561      .   S
    C17    O342      0.54608      .   S
    C90    O342      0.54608      .   S
    C141   O343      0.93925      .   S
    C8     O343      0.93925      .   S
    C141   O344      0.70536      .   S
    C146   O344      0.70536      .   S
    C145   O345      0.69668      .   S
    C146   O345      0.69668      .   S
    C145   O346      0.54511      .   S
    C50    O346      0.54511      .   S
    C139   O347      0.54587      .   S
    C47    O347      0.54587      .   S
    C8     O348      0.94230      .   S
    C155   O348      0.94230      .   S
    C149   O349      0.54556      .   S
    C52    O349      0.54556      .   S
    C146   O350      0.54601      .   S
    C51    O350      0.54601      .   S
    C16    O351      0.54509      .   S
    C89    O351      0.54509      .   S
    C4     O352      1.16579      .   S
    C192   O352      1.16579      .   S
    C90    O353      0.69667      .   S
    C89    O353      0.69667      .   S
    C90    O354      0.70534      .   S
    C85    O354      0.70534      .   S
    C93    O355      0.69580      .   S
    C94    O355      0.69580      .   S
    C93    O356      0.70347      .   S
    C92    O356      0.70347      .   S
    C6     O357      0.93928      .   S
    C85    O357      0.93928      .   S
    C6     O358      0.93892      .   S
    C92    O358      0.93892      .   S
    C6     O359      0.93979      .   S
    C78    O359      0.93979      .   S
    C19    O360      0.54333      .   S
    C94    O360      0.54333      .   S
    C83    O361      0.69575      .   S
    C82    O361      0.69575      .   S
    C83    O362      0.70422      .   S
    C78    O362      0.70422      .   S
    C12    O363      0.54467      .   S
    C82    O363      0.54467      .   S
    C89    O364      0.70197      .   S
    C88    O364      0.70197      .   S
    C85    O365      0.70354      .   S
    C86    O365      0.70354      .   S
    C94    O366      0.69980      .   S
    C95    O366      0.69980      .   S
    C82    O367      0.70115      .   S
    C81    O367      0.70115      .   S
    C92    O368      0.70505      .   S
    C97    O368      0.70505      .   S
    C192   O369      0.63004      .   S
    C91    O369      0.63004      .   S
    C78    O370      0.70337      .   S
    C79    O370      0.70337      .   S
    C88    O371      0.74729      .   S
    C91    O371      0.74729      .   S
    C88    O372      0.69997      .   S
    C87    O372      0.69997      .   S
    C86    O373      0.69740      .   S
    C87    O373      0.69740      .   S
    C86    O374      0.54537      .   S
    C14    O374      0.54537      .   S
    C59    O375      0.54581      .   S
    C160   O375      0.54581      .   S
    C91    O376      0.64733      .   S
    C193   O376      0.64733      .   S
    C191   O377      0.64677      .   S
    C84    O377      0.64677      .   S
    C155   O378      0.70567      .   S
    C160   O378      0.70567      .   S
    C155   O379      0.70322      .   S
    C156   O379      0.70322      .   S
    C195   O380      0.64249  1_455   S
    C98    O380      0.64249      .   S
    C81    O381      0.74640      .   S
    C84    O381      0.74640      .   S
    C81    O382      0.70093      .   S
    C80    O382      0.70093      .   S
    C95    O383      0.74628      .   S
    C98    O383      0.74628      .   S
    C95    O384      0.70097      .   S
    C96    O384      0.70097      .   S
    C87    O385      0.54520      .   S
    C15    O385      0.54520      .   S
    C79    O386      0.54313      .   S
    C10    O386      0.54313      .   S
    C79    O387      0.69749      .   S
    C80    O387      0.69749      .   S
    C97    O388      0.54601      .   S
    C21    O388      0.54601      .   S
    C97    O389      0.69710      .   S
    C96    O389      0.69710      .   S
    C160   O390      0.69510      .   S
    C159   O390      0.69510      .   S
    C56    O391      0.54504      .   S
    C156   O391      0.54504      .   S
    C84    O392      0.63397      .   S
    C190   O392      0.63397      .   S
    C98    O393      0.63442      .   S
    C194   O393      0.63442      .   S
    C80    O394      0.54542      .   S
    C11    O394      0.54542      .   S
    C96    O395      0.54544      .   S
    C20    O395      0.54544      .   S
    C156   O396      0.69725      .   S
    C157   O396      0.69725      .   S
    C0     O397      1.18566  1_455   S
    C190   O397      1.18566      .   S
    C0     O398      1.16959      .   S
    C204   O398      1.16959      .   S
    C159   O399      0.54463      .   S
    C58    O399      0.54463      .   S
    C159   O400      0.70198      .   S
    C158   O400      0.70198      .   S
    C157   O401      0.70137      .   S
    C158   O401      0.70137      .   S
    C157   O402      0.54464      .   S
    C57    O402      0.54464      .   S
    C43    O403      0.51682      .   S
    C205   O403      0.51682      .   S
    C158   O404      0.74051      .   S
    C161   O404      0.74051      .   S
    C205   O405      0.66205      .   S
    C133   O405      0.66205      .   S
    C204   O406      0.62479      .   S
    C133   O406      0.62479      .   S
    C161   O407      0.62481      .   S
    C212   O407      0.62481      .   S
    C161   O408      0.66212      .   S
    C213   O408      0.66212      .   S
    C133   O409      0.74053      .   S
    C130   O409      0.74053      .   S
    C212   O410      1.16969      .   S
    C3     O410      1.16969      .   S
    C213   O411      0.51675      .   S
    C60    O411      0.51675      .   S
    C40    O412      0.54424      .   S
    C129   O412      0.54424      .   S
    C130   O413      0.70116      .   S
    C129   O413      0.70116      .   S
    C130   O414      0.70196      .   S
    C131   O414      0.70196      .   S
    C129   O415      0.69783      .   S
    C128   O415      0.69783      .   S
    C41    O416      0.54462      .   S
    C131   O416      0.54462      .   S
    C218   O417      0.63398      .   S
    C182   O417      0.63398      .   S
    C214   O418      1.18551      .   S
    C3     O418      1.18551  1_455   S
    C214   O419      0.63396      .   S
    C168   O419      0.63396      .   S
    C131   O420      0.69510      .   S
    C132   O420      0.69510      .   S
    C71    O421      0.54419      .   S
    C180   O421      0.54419      .   S
    C62    O422      0.54498      .   S
    C164   O422      0.54498      .   S
    C217   O423      0.64736      .   S
    C175   O423      0.64736      .   S
    C66    O424      0.54521      .   S
    C171   O424      0.54521      .   S
    C128   O425      0.54505      .   S
    C39    O425      0.54505      .   S
    C128   O426      0.70320      .   S
    C127   O426      0.70320      .   S
    C180   O427      0.69765      .   S
    C181   O427      0.69765      .   S
    C180   O428      0.70139      .   S
    C179   O428      0.70139      .   S
    C72    O429      0.54644  1_565   S
    C181   O429      0.54644      .   S
    C164   O430      0.69767      .   S
    C163   O430      0.69767      .   S
    C164   O431      0.70115      .   S
    C165   O431      0.70115      .   S
    C61    O432      0.54596      .   S
    C163   O432      0.54596      .   S
    C182   O433      0.74627      .   S
    C179   O433      0.74627      .   S
    C182   O434      0.64285      .   S
    C219   O434      0.64285  1_455   S
    C168   O435      0.74646      .   S
    C165   O435      0.74646      .   S
    C168   O436      0.64677      .   S
    C215   O436      0.64677      .   S
    C132   O437      0.70566      .   S
    C127   O437      0.70566      .   S
    C132   O438      0.54582      .   S
    C42    O438      0.54582      .   S
    C181   O439      0.70509      .   S
    C176   O439      0.70509      .   S
    C163   O440      0.70338      .   S
    C162   O440      0.70338      .   S
    C65    O441      0.54538      .   S
    C170   O441      0.54538      .   S
    C171   O442      0.69740      .   S
    C170   O442      0.69740      .   S
    C171   O443      0.69983      .   S
    C172   O443      0.69983      .   S
    C179   O444      0.70019      .   S
    C178   O444      0.70019      .   S
    C165   O445      0.70112      .   S
    C166   O445      0.70112      .   S
    C175   O446      0.74721      .   S
    C172   O446      0.74721      .   S
    C175   O447      0.62923      .   S
    C216   O447      0.62923      .   S
    C170   O448      0.70352      .   S
    C169   O448      0.70352      .   S
    C172   O449      0.70222      .   S
    C173   O449      0.70222      .   S
    C162   O450      0.70420      .   S
    C167   O450      0.70420      .   S
    C162   O451      0.93982      .   S
    C9     O451      0.93982      .   S
    C216   O452      1.16582      .   S
    C5     O452      1.16582  1_554   S
    C176   O453      0.93913  1_545   S
    C9     O453      0.93913      .   S
    C176   O454      0.70343      .   S
    C177   O454      0.70343      .   S
    C166   O455      0.54469      .   S
    C63    O455      0.54469      .   S
    C166   O456      0.69580      .   S
    C167   O456      0.69580      .   S
    C178   O457      0.54329      .   S
    C70    O457      0.54329      .   S
    C178   O458      0.69574      .   S
    C177   O458      0.69574      .   S
    C169   O459      0.93922      .   S
    C9     O459      0.93922      .   S
    C169   O460      0.70536      .   S
    C174   O460      0.70536      .   S
    C173   O461      0.69667      .   S
    C174   O461      0.69667      .   S
    C191   O462      1.23759      .   S
    C0     O462      1.23759  1_455   S
    C191   O463      1.17225      .   S
    C4     O463      1.17225  1_455   S
    C193   O464      1.19048      .   S
    C0     O464      1.19048      .   S
    C194   O465      1.19020      .   S
    C0     O465      1.19020  1_445   S
    C195   O466      1.22187      .   S
    C0     O466      1.22187  1_545   S
    C195   O467      1.16818      .   S
    C4     O467      1.16818  1_545   S
    C199   O468      1.23774      .   S
    C1     O468      1.23774  1_655   S
    C199   O469      1.17342      .   S
    C5     O469      1.17342      .   S
    C201   O470      1.19070      .   S
    C1     O470      1.19070      .   S
    C202   O471      1.19014      .   S
    C1     O471      1.19014  1_655   S
    C203   O472      1.22420      .   S
    C1     O472      1.22420      .   S
    C203   O473      1.17274      .   S
    C5     O473      1.17274  1_455   S
    C207   O474      1.23728      .   S
    C2     O474      1.23728  1_655   S
    C207   O475      1.17261      .   S
    C4     O475      1.17261  1_545   S
    C209   O476      1.19048      .   S
    C2     O476      1.19048      .   S
    C210   O477      1.19018      .   S
    C2     O477      1.19018  1_665   S
    C211   O478      1.22500      .   S
    C2     O478      1.22500  1_565   S
    C211   O479      1.17224      .   S
    C4     O479      1.17224  1_455   S
    C215   O480      1.23744      .   S
    C3     O480      1.23744  1_455   S
    C215   O481      1.17254      .   S
    C5     O481      1.17254  1_454   S
    C217   O482      1.19061      .   S
    C3     O482      1.19061      .   S
    C218   O483      1.19001      .   S
    C3     O483      1.19001  1_455   S
    C219   O484      1.22150      .   S
    C3     O484      1.22150      .   S
    C219   O485      1.16758      .   S
    C5     O485      1.16758  1_554   S
