# CIF file generated by openbabel 2.4.90, see http://openbabel.sf.net
data_I
_chemical_name_common ''
_cell_length_a 14.124
_cell_length_b 14.14
_cell_length_c 14.122
_cell_angle_alpha 104.886
_cell_angle_beta 104.722
_cell_angle_gamma 104.841
_space_group_name_H-M_alt 'P 1'
_space_group_name_Hall 'P 1'
loop_
    _symmetry_equiv_pos_as_xyz
    x,y,z
loop_
    _atom_site_label
    _atom_site_type_symbol
    _atom_site_fract_x
    _atom_site_fract_y
    _atom_site_fract_z
    _atom_site_occupancy
    Ag0     Ag   0.47852   0.21289   0.21275   1.000
    Ag1     Ag   0.21271   0.47822   0.21272   1.000
    Ag2     Ag   0.78734   0.78721   0.52170   1.000
    Ag3     Ag   0.78728   0.52179   0.78724   1.000
    Ag4     Ag   0.52147   0.78713   0.78720   1.000
    Ag5     Ag   0.72444   0.99997   0.27553   1.000
    Ag6     Ag   0.27584   0.72440   0.00000   1.000
    Ag7     Ag   0.00002   0.27575   0.72399   1.000
    Ag8     Ag   0.27555   0.00003   0.72442   1.000
    Ag9     Ag   0.72415   0.27562   0.99999   1.000
    Ag10    Ag   0.99999   0.72427   0.27596   1.000
    Ag11    Ag   0.21265   0.21280   0.47826   1.000
    C12     C    0.40856   0.19805   0.67381   1.000
    C13     C    0.67396   0.40864   0.19827   1.000
    C14     C    0.19803   0.67387   0.40869   1.000
    C15     C    0.80178   0.59139   0.32600   1.000
    C16     C    0.59132   0.32609   0.80189   1.000
    C17     C    0.32617   0.80195   0.59130   1.000
    C18     C    0.59143   0.80196   0.32615   1.000
    C19     C    0.32603   0.59137   0.80168   1.000
    C20     C    0.80196   0.32615   0.59127   1.000
    C21     C    0.19821   0.40863   0.67387   1.000
    C22     C    0.40867   0.67393   0.19807   1.000
    C23     C    0.67382   0.19807   0.40859   1.000
    O24     O    0.35680   0.14840   0.57720   1.000
    O25     O    0.38643   0.17378   0.74830   1.000
    O26     O    0.57747   0.35700   0.14822   1.000
    O27     O    0.74859   0.38639   0.17400   1.000
    O28     O    0.14814   0.57734   0.35710   1.000
    O29     O    0.17395   0.74830   0.38653   1.000
    O30     O    0.85189   0.64300   0.42262   1.000
    O31     O    0.82565   0.61361   0.25145   1.000
    O32     O    0.64295   0.42262   0.85171   1.000
    O33     O    0.61348   0.25166   0.82598   1.000
    O34     O    0.42271   0.85161   0.64311   1.000
    O35     O    0.25169   0.82622   0.61354   1.000
    O36     O    0.64319   0.85162   0.42273   1.000
    O37     O    0.61357   0.82624   0.25166   1.000
    O38     O    0.42252   0.64301   0.85174   1.000
    O39     O    0.25140   0.61363   0.82556   1.000
    O40     O    0.85185   0.42268   0.64286   1.000
    O41     O    0.82604   0.25171   0.61343   1.000
    O42     O    0.14810   0.35702   0.57734   1.000
    O43     O    0.17434   0.38641   0.74851   1.000
    O44     O    0.35704   0.57740   0.14824   1.000
    O45     O    0.38651   0.74836   0.17397   1.000
    O46     O    0.57728   0.14840   0.35685   1.000
    O47     O    0.74830   0.17379   0.38642   1.000
    Ts48    Ts   0.46340   0.16660   0.16653   1.000
    Ts49    Ts   0.46066   0.24793   0.24773   1.000
    Ts50    Ts   0.16650   0.46319   0.16652   1.000
    Ts51    Ts   0.24769   0.46046   0.24770   1.000
    Ts52    Ts   0.83354   0.83347   0.53677   1.000
    Ts53    Ts   0.75236   0.75217   0.53950   1.000
    Ts54    Ts   0.83350   0.53683   0.83344   1.000
    Ts55    Ts   0.75230   0.53956   0.75225   1.000
    Ts56    Ts   0.53659   0.83342   0.83342   1.000
    Ts57    Ts   0.53933   0.75209   0.75222   1.000
    Ts58    Ts   0.77941   0.99877   0.29951   1.000
    Ts59    Ts   0.70047   0.00122   0.22057   1.000
    Ts60    Ts   0.29974   0.77939   0.99878   1.000
    Ts61    Ts   0.22078   0.70039   0.00117   1.000
    Ts62    Ts   0.99883   0.29972   0.77908   1.000
    Ts63    Ts   0.00122   0.22071   0.70011   1.000
    Ts64    Ts   0.22058   0.00124   0.70045   1.000
    Ts65    Ts   0.29952   0.99879   0.77939   1.000
    Ts66    Ts   0.70024   0.22063   0.00120   1.000
    Ts67    Ts   0.77920   0.29963   0.99881   1.000
    Ts68    Ts   0.00117   0.70030   0.22087   1.000
    Ts69    Ts   0.99879   0.77931   0.29984   1.000
    Ts70    Ts   0.16645   0.16655   0.46319   1.000
    Ts71    Ts   0.24763   0.24785   0.46046   1.000
    Og72    Og   0.43903   0.23129   0.68326   1.000
    Og73    Og   0.68333   0.43913   0.23151   1.000
    Og74    Og   0.23129   0.68331   0.43910   1.000
    Og75    Og   0.76854   0.56096   0.31666   1.000
    Og76    Og   0.56087   0.31664   0.76865   1.000
    Og77    Og   0.31672   0.76869   0.56084   1.000
    Og78    Og   0.56096   0.76873   0.31670   1.000
    Og79    Og   0.31666   0.56089   0.76845   1.000
    Og80    Og   0.76870   0.31671   0.56086   1.000
    Og81    Og   0.23145   0.43906   0.68324   1.000
    Og82    Og   0.43912   0.68337   0.23131   1.000
    Og83    Og   0.68327   0.23132   0.43907   1.000
loop_
    _geom_bond_atom_site_label_1
    _geom_bond_atom_site_label_2
    _geom_bond_distance
    _geom_bond_site_symmetry_2
    _ccdc_geom_bond_type
    O26    C13       1.27501      .   S
    O44    C22       1.27509      .   S
    O45    C22       1.27278      .   S
    O45    Ag6       2.43788      .   S
    O27    C13       1.27499      .   S
    O27    Ag9       2.43420  1_554   S
    O31    Ag10      2.43846      .   S
    O31    C15       1.27151      .   S
    O37    Ag5       2.43650      .   S
    O37    C18       1.27272      .   S
    Ag5    O47       2.43653  1_565   S
    Ag10   O29       2.43733  1_655   S
    C15    O30       1.27601      .   S
    C18    O36       1.27511      .   S
    O46    C23       1.27511      .   S
    O28    C14       1.27505      .   S
    O47    C23       1.27267      .   S
    O29    C14       1.27276      .   S
    O24    C12       1.27544      .   S
    O42    C21       1.27502      .   S
    C20    O41       1.27275      .   S
    C20    O40       1.27506      .   S
    C17    O35       1.27305      .   S
    C17    O34       1.27527      .   S
    O41    Ag7       2.43747  1_655   S
    O35    Ag8       2.43629  1_565   S
    C12    O25       1.27273      .   S
    C21    O43       1.27272      .   S
    Ag7    O43       2.43822      .   S
    Ag8    O25       2.43663      .   S
    C19    O39       1.27272      .   S
    C19    O38       1.27504      .   S
    C16    O33       1.27270      .   S
    C16    O32       1.27507      .   S
    O39    Ag6       2.43913  1_556   S
    O33    Ag9       2.43831      .   S
    Ag0    Ts48      0.73356      .   S
    Ag0    Ts49      0.74475      .   S
    Ag1    Ts50      0.73356      .   S
    Ag1    Ts51      0.74471      .   S
    Ag2    Ts52      0.73354      .   S
    Ag2    Ts53      0.74466      .   S
    Ag3    Ts54      0.73356      .   S
    Ag3    Ts55      0.74474      .   S
    Ag4    Ts56      0.73359      .   S
    Ag4    Ts57      0.74472      .   S
    Ag5    Ts58      0.77065      .   S
    Ag5    Ts59      0.77064  1_565   S
    Ag6    Ts60      0.77090  1_554   S
    Ag6    Ts61      0.77094      .   S
    Ag7    Ts62      0.77108  1_455   S
    Ag7    Ts63      0.77093      .   S
    Ag8    Ts64      0.77067      .   S
    Ag8    Ts65      0.77065  1_545   S
    Ag9    Ts66      0.77084  1_556   S
    Ag9    Ts67      0.77103      .   S
    Ag10   Ts68      0.77101  1_655   S
    Ag10   Ts69      0.77096      .   S
    Ag11   Ts70      0.73354      .   S
    Ag11   Ts71      0.74466      .   S
    C12    Og72      0.50875      .   S
    C13    Og73      0.50879      .   S
    C14    Og74      0.50880      .   S
    C15    Og75      0.50882      .   S
    C16    Og76      0.50884      .   S
    C17    Og77      0.50858      .   S
    C18    Og78      0.50875      .   S
    C19    Og79      0.50876      .   S
    C20    Og80      0.50880      .   S
    C21    Og81      0.50874      .   S
    C22    Og82      0.50883      .   S
    C23    Og83      0.50876      .   S
