# CIF file generated by openbabel 2.4.90, see http://openbabel.sf.net
data_I
_chemical_name_common ''
_cell_length_a 14.124
_cell_length_b 14.14
_cell_length_c 14.122
_cell_angle_alpha 104.886
_cell_angle_beta 104.722
_cell_angle_gamma 104.841
_space_group_name_H-M_alt 'P 1'
_space_group_name_Hall 'P 1'
loop_
    _symmetry_equiv_pos_as_xyz
    x,y,z
loop_
    _atom_site_label
    _atom_site_type_symbol
    _atom_site_fract_x
    _atom_site_fract_y
    _atom_site_fract_z
    _atom_site_occupancy
    N0      N    0.61740   0.01436   0.01431   1.000
    N1      N    0.50002   0.68243   0.31760   1.000
    N2      N    0.98566   0.98568   0.38257   1.000
    N3      N    0.31778   0.49990   0.68214   1.000
    N4      N    0.35446   0.35468   0.35448   1.000
    N5      N    0.64553   0.64534   0.64548   1.000
    N6      N    0.01428   0.61736   0.01424   1.000
    N7      N    0.01433   0.01434   0.61738   1.000
    N8      N    0.31764   0.68236   0.49990   1.000
    N9      N    0.49997   0.31759   0.68236   1.000
    N10     N    0.68235   0.31766   0.50004   1.000
    N11     N    0.38259   0.98566   0.98564   1.000
    N12     N    0.98571   0.38266   0.98571   1.000
    N13     N    0.68221   0.50012   0.31782   1.000
    Zr14    Zr   0.21271   0.47822   0.21272   1.000
    O15     O    0.26126   0.44068   0.26128   1.000
    O16     O    0.13863   0.44870   0.13864   1.000
    Zr17    Zr   0.34686   0.65316   0.99989   1.000
    O18     O    0.34700   0.77471   0.99590   1.000
    O19     O    0.22531   0.65301   0.00394   1.000
    O20     O    0.33087   0.58797   0.85844   1.000
    O21     O    0.41202   0.66921   0.14133   1.000
    Zr22    Zr   0.00007   0.34691   0.65304   1.000
    O23     O    0.00407   0.22534   0.65291   1.000
    O24     O    0.99602   0.34705   0.77461   1.000
    O25     O    0.85864   0.33087   0.58794   1.000
    O26     O    0.14150   0.41200   0.66903   1.000
    Zr27    Zr   0.52147   0.78713   0.78720   1.000
    O28     O    0.55919   0.73854   0.73865   1.000
    O29     O    0.55112   0.86129   0.86131   1.000
    Zr30    Zr   0.47852   0.21289   0.21275   1.000
    O31     O    0.44887   0.13872   0.13864   1.000
    O32     O    0.44081   0.26148   0.26130   1.000
    Zr33    Zr   0.78728   0.52179   0.78724   1.000
    O34     O    0.73873   0.55934   0.73868   1.000
    O35     O    0.86136   0.55132   0.86132   1.000
    Zr36    Zr   0.21265   0.21280   0.47826   1.000
    O37     O    0.13858   0.13868   0.44869   1.000
    O38     O    0.26122   0.26141   0.44064   1.000
    Zr39    Zr   0.65313   0.34686   0.00001   1.000
    O40     O    0.77468   0.34700   0.99599   1.000
    O41     O    0.65299   0.22530   0.00403   1.000
    O42     O    0.58797   0.33081   0.85860   1.000
    O43     O    0.66912   0.41205   0.14149   1.000
    Zr44    Zr   0.34684   0.00001   0.65310   1.000
    O45     O    0.41198   0.14138   0.66914   1.000
    O46     O    0.33083   0.85861   0.58793   1.000
    O47     O    0.34694   0.99596   0.77468   1.000
    O48     O    0.22528   0.00405   0.65301   1.000
    Zr49    Zr   0.99992   0.65311   0.34691   1.000
    O50     O    0.85849   0.58802   0.33091   1.000
    O51     O    0.14135   0.66915   0.41201   1.000
    O52     O    0.99592   0.77468   0.34704   1.000
    O53     O    0.00397   0.65297   0.22534   1.000
    Zr54    Zr   0.65315   0.00001   0.34685   1.000
    O55     O    0.58801   0.85864   0.33082   1.000
    O56     O    0.77471   0.99597   0.34694   1.000
    O57     O    0.65305   0.00405   0.22527   1.000
    O58     O    0.66916   0.14141   0.41201   1.000
    Zr59    Zr   0.78734   0.78721   0.52170   1.000
    O60     O    0.73877   0.73860   0.55932   1.000
    O61     O    0.86141   0.86134   0.55127   1.000
loop_
    _geom_bond_atom_site_label_1
    _geom_bond_atom_site_label_2
    _geom_bond_distance
    _geom_bond_site_symmetry_2
    _ccdc_geom_bond_type
    Zr14   O15       1.16491      .   S
    N4     O15       2.38853      .   S
    Zr14   O16       1.16572      .   S
    N12    O16       2.40019  1_656   S
    Zr17   O18       1.73368      .   S
    N11    O18       2.94300      .   S
    Zr17   O19       1.73164  1_556   S
    N6     O19       2.94067      .   S
    Zr17   O20       1.89979      .   S
    N3     O20       2.41636      .   S
    Zr17   O21       1.90098  1_556   S
    N1     O21       2.41780      .   S
    Zr22   O23       1.73387      .   S
    N7     O23       2.94338      .   S
    Zr22   O24       1.73170  1_455   S
    N12    O24       2.94104      .   S
    Zr22   O25       1.90114  1_455   S
    N10    O25       2.41811      .   S
    Zr22   O26       1.90004      .   S
    N3     O26       2.41673      .   S
    Zr27   O28       1.16478      .   S
    N5     O28       2.38820      .   S
    Zr27   O29       1.16572      .   S
    N0     O29       2.40013  1_544   S
    Zr30   O31       1.16570      .   S
    N11    O31       2.40013  1_566   S
    Zr30   O32       1.16480      .   S
    N4     O32       2.38822      .   S
    Zr33   O34       1.16493      .   S
    N5     O34       2.38855      .   S
    Zr33   O35       1.16571      .   S
    N6     O35       2.40015  1_454   S
    Zr36   O37       1.16566      .   S
    N2     O37       2.40006  1_665   S
    Zr36   O38       1.16475      .   S
    N4     O38       2.38817      .   S
    Zr39   O40       1.73151  1_554   S
    N12    O40       2.94059      .   S
    Zr39   O41       1.73380      .   S
    N0     O41       2.94310      .   S
    Zr39   O42       1.90062  1_554   S
    N9     O42       2.41745      .   S
    Zr39   O43       1.90014      .   S
    N13    O43       2.41673      .   S
    Zr44   O45       1.90077      .   S
    N9     O45       2.41749      .   S
    Zr44   O46       1.90072  1_545   S
    N8     O46       2.41740      .   S
    Zr44   O47       1.73217  1_545   S
    N11    O47       2.94089      .   S
    Zr44   O48       1.73222      .   S
    N7     O48       2.94093      .   S
    Zr49   O50       1.90005      .   S
    N13    O50       2.41683      .   S
    Zr49   O51       1.90113  1_655   S
    N8     O51       2.41806      .   S
    Zr49   O52       1.73385      .   S
    N2     O52       2.94339      .   S
    Zr49   O53       1.73164  1_655   S
    N6     O53       2.94097      .   S
    Zr54   O55       1.90079  1_545   S
    N1     O55       2.41750      .   S
    Zr54   O56       1.73221  1_545   S
    N2     O56       2.94091      .   S
    Zr54   O57       1.73211      .   S
    N0     O57       2.94086      .   S
    Zr54   O58       1.90072      .   S
    N10    O58       2.41742      .   S
    Zr59   O60       1.16474      .   S
    N5     O60       2.38813      .   S
    Zr59   O61       1.16567      .   S
    N7     O61       2.40006  1_445   S
