# CIF file generated by openbabel 2.4.90, see http://openbabel.sf.net
data_I
_chemical_name_common ''
_cell_length_a 11.671
_cell_length_b 12.279
_cell_length_c 14.179
_cell_angle_alpha 90.002
_cell_angle_beta 127.997
_cell_angle_gamma 89.983
_space_group_name_H-M_alt 'P 1'
_space_group_name_Hall 'P 1'
loop_
    _symmetry_equiv_pos_as_xyz
    x,y,z
loop_
    _atom_site_label
    _atom_site_type_symbol
    _atom_site_fract_x
    _atom_site_fract_y
    _atom_site_fract_z
    _atom_site_occupancy
    Zr0     Zr   0.99999   0.99995   0.30000   1.000
    Zr1     Zr   0.49997   0.49994   0.70000   1.000
    N2      N    0.99643   0.49995   0.00002   1.000
    N3      N    0.49997   0.99995   0.00003   1.000
    N4      N    0.47223   0.49898   0.73317   1.000
    O5      O    0.50739   0.50871   0.72246   1.000
    O6      O    0.45132   0.48985   0.72133   1.000
    N7      N    0.52046   0.50104   0.34191   1.000
    N8      N    0.02766   0.99892   0.26686   1.000
    O9      O    0.04859   0.98980   0.27870   1.000
    O10     O    0.99250   0.00867   0.27756   1.000
    N11     N    0.46265   0.49363   0.61522   1.000
    O12     O    0.47198   0.49521   0.63641   1.000
    N13     N    0.97949   0.00063   0.65751   1.000
    N14     N    0.03726   0.99357   0.38480   1.000
    O15     O    0.02794   0.99517   0.36360   1.000
loop_
    _geom_bond_atom_site_label_1
    _geom_bond_atom_site_label_2
    _geom_bond_distance
    _geom_bond_site_symmetry_2
    _ccdc_geom_bond_type
    N4     O5        0.53156      .   S
    Zr1    O5        0.29413      .   S
    N4     O6        0.22335      .   S
    Zr1    O6        0.80036      .   S
    N8     O9        0.22341      .   S
    Zr0    O9        0.79971  1_655   S
    N8     O10       0.53142  1_465   S
    Zr0    O10       0.29340  1_565   S
    N11    O12       0.24952      .   S
    Zr1    O12       0.74855      .   S
    N14    O15       0.24963      .   S
    Zr0    O15       0.74889  1_655   S
