# CIF file generated by openbabel 2.4.90, see http://openbabel.sf.net
data_I
_chemical_name_common ''
_cell_length_a 21.933
_cell_length_b 21.947
_cell_length_c 15.978
_cell_angle_alpha 89.996
_cell_angle_beta 90
_cell_angle_gamma 89.962
_space_group_name_H-M_alt 'P 1'
_space_group_name_Hall 'P 1'
loop_
    _symmetry_equiv_pos_as_xyz
    x,y,z
loop_
    _atom_site_label
    _atom_site_type_symbol
    _atom_site_fract_x
    _atom_site_fract_y
    _atom_site_fract_z
    _atom_site_occupancy
    Fe0     Fe   0.00008   0.49999   0.99977   1.000
    Fe1     Fe   0.50002   0.99998   0.99974   1.000
    Fe2     Fe   0.50002   0.50001   0.99978   1.000
    Fe3     Fe   0.24987   0.99998   0.49970   1.000
    Fe4     Fe   0.24989   0.50006   0.49977   1.000
    Fe5     Fe   0.75020   0.00002   0.49970   1.000
    Fe6     Fe   0.75018   0.49994   0.49975   1.000
    Fe7     Fe   0.00011   0.24984   0.49972   1.000
    Fe8     Fe   0.00002   0.75017   0.49978   1.000
    Fe9     Fe   0.49999   0.24984   0.49973   1.000
    Fe10    Fe   0.50006   0.75015   0.49978   1.000
    Fe11    Fe   0.24988   0.24979   0.99979   1.000
    Fe12    Fe   0.24990   0.75013   0.99977   1.000
    Fe13    Fe   0.75017   0.24988   0.99976   1.000
    Fe14    Fe   0.75020   0.75019   0.99973   1.000
    Fe15    Fe   0.00006   0.99999   0.99976   1.000
    Ts16    Ts   0.01173   0.50314   0.03538   1.000
    Ts17    Ts   0.97586   0.51210   0.01369   1.000
    Ts18    Ts   0.01033   0.52578   0.98874   1.000
    Ts19    Ts   0.98842   0.49685   0.96413   1.000
    Ts20    Ts   0.02428   0.48788   0.98585   1.000
    Ts21    Ts   0.98980   0.47420   0.01079   1.000
    Ts22    Ts   0.51169   0.00310   0.03536   1.000
    Ts23    Ts   0.47583   0.01208   0.01369   1.000
    Ts24    Ts   0.51030   0.02578   0.98874   1.000
    Ts25    Ts   0.48836   0.99687   0.96412   1.000
    Ts26    Ts   0.52422   0.98789   0.98576   1.000
    Ts27    Ts   0.48975   0.97420   0.01073   1.000
    Ts28    Ts   0.51168   0.50315   0.03541   1.000
    Ts29    Ts   0.47583   0.51216   0.01370   1.000
    Ts30    Ts   0.51034   0.52578   0.98874   1.000
    Ts31    Ts   0.48836   0.49687   0.96414   1.000
    Ts32    Ts   0.52421   0.48785   0.98585   1.000
    Ts33    Ts   0.48969   0.47424   0.01081   1.000
    Ts34    Ts   0.23819   0.99686   0.53532   1.000
    Ts35    Ts   0.27406   0.98789   0.51369   1.000
    Ts36    Ts   0.23963   0.97419   0.48873   1.000
    Ts37    Ts   0.26156   0.00311   0.46412   1.000
    Ts38    Ts   0.22568   0.01206   0.48573   1.000
    Ts39    Ts   0.26013   0.02578   0.51072   1.000
    Ts40    Ts   0.23823   0.49691   0.53539   1.000
    Ts41    Ts   0.27409   0.48792   0.51371   1.000
    Ts42    Ts   0.23962   0.47428   0.48871   1.000
    Ts43    Ts   0.26158   0.50320   0.46415   1.000
    Ts44    Ts   0.22571   0.51219   0.48583   1.000
    Ts45    Ts   0.26019   0.52583   0.51081   1.000
    Ts46    Ts   0.73851   0.99690   0.53530   1.000
    Ts47    Ts   0.77438   0.98794   0.51366   1.000
    Ts48    Ts   0.73993   0.97423   0.48869   1.000
    Ts49    Ts   0.76187   0.00314   0.46410   1.000
    Ts50    Ts   0.72600   0.01213   0.48547   1.000
    Ts51    Ts   0.76044   0.02581   0.51070   1.000
    Ts52    Ts   0.73850   0.49679   0.53537   1.000
    Ts53    Ts   0.77437   0.48780   0.51368   1.000
    Ts54    Ts   0.73987   0.47417   0.48871   1.000
    Ts55    Ts   0.76184   0.50309   0.46410   1.000
    Ts56    Ts   0.72598   0.51208   0.48580   1.000
    Ts57    Ts   0.76046   0.52571   0.51079   1.000
    Ts58    Ts   0.98846   0.25305   0.46408   1.000
    Ts59    Ts   0.02432   0.26194   0.48585   1.000
    Ts60    Ts   0.98985   0.27562   0.51081   1.000
    Ts61    Ts   0.01176   0.24664   0.53535   1.000
    Ts62    Ts   0.97590   0.23776   0.51360   1.000
    Ts63    Ts   0.01035   0.22406   0.48864   1.000
    Ts64    Ts   0.98837   0.75338   0.46415   1.000
    Ts65    Ts   0.02423   0.76225   0.48590   1.000
    Ts66    Ts   0.98978   0.77595   0.51086   1.000
    Ts67    Ts   0.01166   0.74695   0.53542   1.000
    Ts68    Ts   0.97580   0.73807   0.51365   1.000
    Ts69    Ts   0.01027   0.72438   0.48869   1.000
    Ts70    Ts   0.47578   0.23773   0.51360   1.000
    Ts71    Ts   0.48835   0.25307   0.46408   1.000
    Ts72    Ts   0.52419   0.26198   0.48586   1.000
    Ts73    Ts   0.48968   0.27561   0.51084   1.000
    Ts74    Ts   0.51163   0.24664   0.53538   1.000
    Ts75    Ts   0.51029   0.22409   0.48863   1.000
    Ts76    Ts   0.48842   0.75335   0.46413   1.000
    Ts77    Ts   0.52426   0.76227   0.48589   1.000
    Ts78    Ts   0.48976   0.77590   0.51087   1.000
    Ts79    Ts   0.51170   0.74693   0.53543   1.000
    Ts80    Ts   0.47585   0.73801   0.51365   1.000
    Ts81    Ts   0.51037   0.72438   0.48868   1.000
    Ts82    Ts   0.26153   0.24658   0.96414   1.000
    Ts83    Ts   0.22567   0.23773   0.98592   1.000
    Ts84    Ts   0.26015   0.22401   0.01087   1.000
    Ts85    Ts   0.23826   0.25300   0.03544   1.000
    Ts86    Ts   0.27411   0.26189   0.01366   1.000
    Ts87    Ts   0.23963   0.27558   0.98871   1.000
    Ts88    Ts   0.26154   0.74691   0.96411   1.000
    Ts89    Ts   0.22568   0.73803   0.98590   1.000
    Ts90    Ts   0.26018   0.72434   0.01085   1.000
    Ts91    Ts   0.23827   0.75332   0.03541   1.000
    Ts92    Ts   0.27412   0.76221   0.01365   1.000
    Ts93    Ts   0.23966   0.77591   0.98870   1.000
    Ts94    Ts   0.76178   0.24669   0.96410   1.000
    Ts95    Ts   0.72594   0.23780   0.98589   1.000
    Ts96    Ts   0.76041   0.22411   0.01082   1.000
    Ts97    Ts   0.73853   0.25310   0.03541   1.000
    Ts98    Ts   0.77438   0.26198   0.01361   1.000
    Ts99    Ts   0.73988   0.27567   0.98867   1.000
    Ts100   Ts   0.76181   0.74698   0.96407   1.000
    Ts101   Ts   0.72596   0.73809   0.98586   1.000
    Ts102   Ts   0.76045   0.72440   0.01081   1.000
    Ts103   Ts   0.73855   0.75339   0.03538   1.000
    Ts104   Ts   0.77441   0.76226   0.01359   1.000
    Ts105   Ts   0.73992   0.77597   0.98864   1.000
    Ts106   Ts   0.01173   0.00311   0.03536   1.000
    Ts107   Ts   0.97585   0.01206   0.01370   1.000
    Ts108   Ts   0.01028   0.02579   0.98876   1.000
    Ts109   Ts   0.98839   0.99687   0.96415   1.000
    Ts110   Ts   0.02426   0.98792   0.98581   1.000
    Ts111   Ts   0.98983   0.97419   0.01075   1.000
loop_
    _geom_bond_atom_site_label_1
    _geom_bond_atom_site_label_2
    _geom_bond_distance
    _geom_bond_site_symmetry_2
    _ccdc_geom_bond_type
    Fe0    Ts16      0.62757  1_556   S
    Fe0    Ts17      0.63397  1_456   S
    Fe0    Ts18      0.63416      .   S
    Fe0    Ts19      0.62801  1_455   S
    Fe0    Ts20      0.63379      .   S
    Fe0    Ts21      0.63420  1_456   S
    Fe1    Ts22      0.62773  1_566   S
    Fe1    Ts23      0.63376  1_566   S
    Fe1    Ts24      0.63424  1_565   S
    Fe1    Ts25      0.62780      .   S
    Fe1    Ts26      0.63392      .   S
    Fe1    Ts27      0.63414  1_556   S
    Fe2    Ts28      0.62796  1_556   S
    Fe2    Ts29      0.63399  1_556   S
    Fe2    Ts30      0.63438      .   S
    Fe2    Ts31      0.62805      .   S
    Fe2    Ts32      0.63400      .   S
    Fe2    Ts33      0.63433  1_556   S
    Fe3    Ts34      0.62781      .   S
    Fe3    Ts35      0.63400      .   S
    Fe3    Ts36      0.63375      .   S
    Fe3    Ts37      0.62752  1_565   S
    Fe3    Ts38      0.63343  1_565   S
    Fe3    Ts39      0.63431  1_565   S
    Fe4    Ts40      0.62773      .   S
    Fe4    Ts41      0.63414      .   S
    Fe4    Ts42      0.63413      .   S
    Fe4    Ts43      0.62805      .   S
    Fe4    Ts44      0.63373      .   S
    Fe4    Ts45      0.63433      .   S
    Fe5    Ts46      0.62773  1_545   S
    Fe5    Ts47      0.63345  1_545   S
    Fe5    Ts48      0.63420  1_545   S
    Fe5    Ts49      0.62754      .   S
    Fe5    Ts50      0.63540      .   S
    Fe5    Ts51      0.63392      .   S
    Fe6    Ts52      0.62805      .   S
    Fe6    Ts53      0.63378      .   S
    Fe6    Ts54      0.63435      .   S
    Fe6    Ts55      0.62816      .   S
    Fe6    Ts56      0.63424      .   S
    Fe6    Ts57      0.63407      .   S
    Fe7    Ts58      0.62810  1_455   S
    Fe7    Ts59      0.63389      .   S
    Fe7    Ts60      0.63416  1_455   S
    Fe7    Ts61      0.62781      .   S
    Fe7    Ts62      0.63383  1_455   S
    Fe7    Ts63      0.63364      .   S
    Fe8    Ts64      0.62797  1_455   S
    Fe8    Ts65      0.63365      .   S
    Fe8    Ts66      0.63374  1_455   S
    Fe8    Ts67      0.62803      .   S
    Fe8    Ts68      0.63405  1_455   S
    Fe8    Ts69      0.63410      .   S
    Fe9    Ts70      0.63392      .   S
    Fe9    Ts71      0.62814      .   S
    Fe9    Ts72      0.63419      .   S
    Fe9    Ts73      0.63429      .   S
    Fe9    Ts74      0.62811      .   S
    Fe9    Ts75      0.63392      .   S
    Fe10   Ts76      0.62807      .   S
    Fe10   Ts77      0.63411      .   S
    Fe10   Ts78      0.63389      .   S
    Fe10   Ts79      0.62813      .   S
    Fe10   Ts80      0.63415      .   S
    Fe10   Ts81      0.63431      .   S
    Fe11   Ts82      0.62827      .   S
    Fe11   Ts83      0.63355      .   S
    Fe11   Ts84      0.63403  1_556   S
    Fe11   Ts85      0.62795  1_556   S
    Fe11   Ts86      0.63425  1_556   S
    Fe11   Ts87      0.63419      .   S
    Fe12   Ts88      0.62832      .   S
    Fe12   Ts89      0.63389      .   S
    Fe12   Ts90      0.63439  1_556   S
    Fe12   Ts91      0.62782  1_556   S
    Fe12   Ts92      0.63402  1_556   S
    Fe12   Ts93      0.63375      .   S
    Fe13   Ts94      0.62798      .   S
    Fe13   Ts95      0.63411      .   S
    Fe13   Ts96      0.63373  1_556   S
    Fe13   Ts97      0.62821  1_556   S
    Fe13   Ts98      0.63386  1_556   S
    Fe13   Ts99      0.63445      .   S
    Fe14   Ts100     0.62806      .   S
    Fe14   Ts101     0.63431      .   S
    Fe14   Ts102     0.63417  1_556   S
    Fe14   Ts103     0.62819  1_556   S
    Fe14   Ts104     0.63350  1_556   S
    Fe14   Ts105     0.63409      .   S
    Fe15   Ts106     0.62750  1_566   S
    Fe15   Ts107     0.63368  1_466   S
    Fe15   Ts108     0.63397  1_565   S
    Fe15   Ts109     0.62778  1_455   S
    Fe15   Ts110     0.63355      .   S
    Fe15   Ts111     0.63398  1_456   S
