# CIF file generated by openbabel 2.4.90, see http://openbabel.sf.net
data_I
_chemical_name_common ''
_cell_length_a 21.933
_cell_length_b 21.947
_cell_length_c 15.978
_cell_angle_alpha 89.996
_cell_angle_beta 90
_cell_angle_gamma 89.962
_space_group_name_H-M_alt 'P 1'
_space_group_name_Hall 'P 1'
loop_
    _symmetry_equiv_pos_as_xyz
    x,y,z
loop_
    _atom_site_label
    _atom_site_type_symbol
    _atom_site_fract_x
    _atom_site_fract_y
    _atom_site_fract_z
    _atom_site_occupancy
    N0      N    0.17585   0.44279   0.81697   1.000
    N1      N    0.42593   0.80723   0.18232   1.000
    N2      N    0.57431   0.05712   0.31676   1.000
    N3      N    0.17582   0.94296   0.81690   1.000
    N4      N    0.92595   0.30712   0.18231   1.000
    N5      N    0.67583   0.44274   0.81689   1.000
    N6      N    0.07414   0.55725   0.31694   1.000
    N7      N    0.17595   0.80720   0.31721   1.000
    N8      N    0.67592   0.30718   0.31710   1.000
    N9      N    0.17594   0.30714   0.31717   1.000
    N10     N    0.67601   0.80730   0.31713   1.000
    N11     N    0.57433   0.55728   0.31692   1.000
    N12     N    0.07417   0.05705   0.31684   1.000
    N13     N    0.92587   0.94294   0.68264   1.000
    N14     N    0.82427   0.05705   0.18256   1.000
    N15     N    0.92598   0.80723   0.18236   1.000
    N16     N    0.82424   0.55721   0.18253   1.000
    N17     N    0.82416   0.69284   0.68232   1.000
    N18     N    0.42574   0.44272   0.68261   1.000
    N19     N    0.57414   0.19276   0.81718   1.000
    N20     N    0.42582   0.30716   0.18235   1.000
    N21     N    0.82413   0.19280   0.68226   1.000
    N22     N    0.32414   0.69282   0.68241   1.000
    N23     N    0.32420   0.05706   0.18266   1.000
    N24     N    0.42575   0.94289   0.68264   1.000
    N25     N    0.32405   0.19270   0.68228   1.000
    N26     N    0.32423   0.55727   0.18264   1.000
    N27     N    0.92591   0.44274   0.68258   1.000
    N28     N    0.07405   0.19278   0.81714   1.000
    N29     N    0.67586   0.94292   0.81680   1.000
    N30     N    0.07408   0.69288   0.81714   1.000
    N31     N    0.57424   0.69283   0.81714   1.000
    Zr32    Zr   0.75020   0.75019   0.99973   1.000
    O33     O    0.77256   0.69228   0.04958   1.000
    O34     O    0.80322   0.76898   0.05058   1.000
    O35     O    0.72728   0.76567   0.09245   1.000
    O36     O    0.77304   0.73465   0.90701   1.000
    O37     O    0.69712   0.73131   0.94888   1.000
    O38     O    0.72776   0.80804   0.94984   1.000
    Zr39    Zr   0.75020   0.00002   0.49970   1.000
    O40     O    0.72723   0.98458   0.59232   1.000
    O41     O    0.80318   0.98122   0.55067   1.000
    O42     O    0.77309   0.01545   0.40706   1.000
    O43     O    0.69715   0.01884   0.44863   1.000
    O44     O    0.72780   0.94217   0.44993   1.000
    O45     O    0.77252   0.05789   0.54946   1.000
    Zr46    Zr   0.75017   0.24988   0.99976   1.000
    O47     O    0.72724   0.26541   0.09246   1.000
    O48     O    0.77301   0.23442   0.90701   1.000
    O49     O    0.72772   0.30777   0.94988   1.000
    O50     O    0.80319   0.26873   0.05059   1.000
    O51     O    0.69707   0.23107   0.94891   1.000
    O52     O    0.77253   0.19201   0.04961   1.000
    Zr53    Zr   0.00011   0.24984   0.49972   1.000
    O54     O    0.05315   0.26870   0.44888   1.000
    O55     O    0.02296   0.23437   0.59244   1.000
    O56     O    0.02247   0.19198   0.44985   1.000
    O57     O    0.97771   0.30773   0.54959   1.000
    O58     O    0.94704   0.23105   0.55056   1.000
    O59     O    0.97720   0.26536   0.40700   1.000
    Zr60    Zr   0.24987   0.99998   0.49970   1.000
    O61     O    0.27284   0.01542   0.40710   1.000
    O62     O    0.27226   0.05783   0.54948   1.000
    O63     O    0.19687   0.01878   0.44875   1.000
    O64     O    0.22755   0.94211   0.44996   1.000
    O65     O    0.22698   0.98456   0.59236   1.000
    O66     O    0.30291   0.98117   0.55068   1.000
    Zr67    Zr   0.50002   0.50001   0.99978   1.000
    O68     O    0.52245   0.55787   0.94998   1.000
    O69     O    0.52297   0.51550   0.09243   1.000
    O70     O    0.44700   0.51888   0.05072   1.000
    O71     O    0.47707   0.48451   0.90712   1.000
    O72     O    0.47760   0.44213   0.04956   1.000
    O73     O    0.55304   0.48113   0.94883   1.000
    Zr74    Zr   0.24988   0.24979   0.99979   1.000
    O75     O    0.27231   0.19194   0.04966   1.000
    O76     O    0.19684   0.23101   0.94893   1.000
    O77     O    0.22753   0.30771   0.94993   1.000
    O78     O    0.22704   0.26533   0.09250   1.000
    O79     O    0.27279   0.23431   0.90704   1.000
    O80     O    0.30295   0.26867   0.05063   1.000
    Zr81    Zr   0.00008   0.49999   0.99977   1.000
    O82     O    0.94704   0.51884   0.05068   1.000
    O83     O    0.05309   0.48115   0.94885   1.000
    O84     O    0.02242   0.55788   0.94998   1.000
    O85     O    0.97769   0.44210   0.04954   1.000
    O86     O    0.02296   0.51549   0.09242   1.000
    O87     O    0.97716   0.48450   0.90711   1.000
    Zr88    Zr   0.49999   0.24984   0.49973   1.000
    O89     O    0.44693   0.23101   0.55057   1.000
    O90     O    0.52243   0.19200   0.44982   1.000
    O91     O    0.52289   0.23437   0.59246   1.000
    O92     O    0.47756   0.30773   0.54962   1.000
    O93     O    0.55305   0.26873   0.44887   1.000
    O94     O    0.47708   0.26538   0.40702   1.000
    Zr95    Zr   0.75018   0.49994   0.49975   1.000
    O96     O    0.77307   0.51544   0.40708   1.000
    O97     O    0.77253   0.55783   0.54953   1.000
    O98     O    0.69714   0.51883   0.44881   1.000
    O99     O    0.80318   0.48109   0.55068   1.000
    O100    O    0.72775   0.44209   0.44995   1.000
    O101    O    0.72721   0.48446   0.59239   1.000
    Zr102   Zr   0.50006   0.75015   0.49978   1.000
    O103    O    0.47716   0.76562   0.40705   1.000
    O104    O    0.47762   0.80799   0.54965   1.000
    O105    O    0.52249   0.69227   0.44990   1.000
    O106    O    0.52297   0.73461   0.59249   1.000
    O107    O    0.44700   0.73127   0.55064   1.000
    O108    O    0.55312   0.76898   0.44891   1.000
    Zr109   Zr   0.50002   0.99998   0.99974   1.000
    O110    O    0.52297   0.01544   0.09235   1.000
    O111    O    0.47765   0.94213   0.04951   1.000
    O112    O    0.55306   0.98118   0.94876   1.000
    O113    O    0.47708   0.98454   0.90711   1.000
    O114    O    0.52241   0.05785   0.94998   1.000
    O115    O    0.44700   0.01879   0.05070   1.000
    Zr116   Zr   0.24989   0.50006   0.49977   1.000
    O117    O    0.22701   0.48456   0.59243   1.000
    O118    O    0.27232   0.55791   0.54957   1.000
    O119    O    0.22755   0.44216   0.44997   1.000
    O120    O    0.27286   0.51554   0.40713   1.000
    O121    O    0.19689   0.51890   0.44884   1.000
    O122    O    0.30293   0.48117   0.55071   1.000
    Zr123   Zr   0.00002   0.75017   0.49978   1.000
    O124    O    0.97764   0.80803   0.54965   1.000
    O125    O    0.05308   0.76896   0.44893   1.000
    O126    O    0.02239   0.69227   0.44991   1.000
    O127    O    0.02290   0.73464   0.59248   1.000
    O128    O    0.94697   0.73130   0.55062   1.000
    O129    O    0.97714   0.76564   0.40706   1.000
    Zr130   Zr   0.24990   0.75013   0.99977   1.000
    O131    O    0.30299   0.76894   0.05061   1.000
    O132    O    0.27233   0.69224   0.04964   1.000
    O133    O    0.19686   0.73128   0.94891   1.000
    O134    O    0.22705   0.76559   0.09250   1.000
    O135    O    0.22754   0.80800   0.94990   1.000
    O136    O    0.27283   0.73460   0.90706   1.000
    Zr137   Zr   0.00006   0.99999   0.99976   1.000
    O138    O    0.02239   0.05786   0.94998   1.000
    O139    O    0.02297   0.01543   0.09238   1.000
    O140    O    0.97714   0.98456   0.90713   1.000
    O141    O    0.05308   0.98121   0.94881   1.000
    O142    O    0.94704   0.01878   0.05069   1.000
    O143    O    0.97771   0.94212   0.04953   1.000
loop_
    _geom_bond_atom_site_label_1
    _geom_bond_atom_site_label_2
    _geom_bond_distance
    _geom_bond_site_symmetry_2
    _ccdc_geom_bond_type
    Zr32   O33       1.57789  1_556   S
    N16    O33       3.81821      .   S
    Zr32   O34       1.47764  1_556   S
    N15    O34       3.52004      .   S
    Zr32   O35       1.60080  1_556   S
    N10    O35       3.87127      .   S
    Zr32   O36       1.60069      .   S
    N17    O36       3.87114      .   S
    Zr32   O37       1.47905      .   S
    N31    O37       3.52291      .   S
    Zr32   O38       1.57751      .   S
    N29    O38       3.81727      .   S
    Zr39   O40       1.59974  1_545   S
    N29    O40       3.86911      .   S
    Zr39   O41       1.47764  1_545   S
    N13    O41       3.51986      .   S
    Zr39   O42       1.59928      .   S
    N14    O42       3.86804      .   S
    Zr39   O43       1.47963      .   S
    N2     O43       3.52153      .   S
    Zr39   O44       1.57693  1_545   S
    N10    O44       3.81567      .   S
    Zr39   O45       1.57663      .   S
    N21    O45       3.81522      .   S
    Zr46   O47       1.60092  1_556   S
    N8     O47       3.87157      .   S
    Zr46   O48       1.60067      .   S
    N21    O48       3.87119      .   S
    Zr46   O49       1.57807      .   S
    N5     O49       3.81838      .   S
    Zr46   O50       1.47788  1_556   S
    N4     O50       3.52022      .   S
    Zr46   O51       1.47893      .   S
    N19    O51       3.52288      .   S
    Zr46   O52       1.57717  1_556   S
    N14    O52       3.81682      .   S
    Zr53   O54       1.47816      .   S
    N9     O54       3.52085      .   S
    Zr53   O55       1.60020      .   S
    N28    O55       3.87009      .   S
    Zr53   O56       1.57712      .   S
    N12    O56       3.81678      .   S
    Zr53   O57       1.57803  1_455   S
    N27    O57       3.81862      .   S
    Zr53   O58       1.47842  1_455   S
    N21    O58       3.52170      .   S
    Zr53   O59       1.60091  1_455   S
    N4     O59       3.87179      .   S
    Zr60   O61       1.59939  1_565   S
    N23    O61       3.86841      .   S
    Zr60   O62       1.57698  1_565   S
    N25    O62       3.81557      .   S
    Zr60   O63       1.47754  1_565   S
    N12    O63       3.51947      .   S
    Zr60   O64       1.57638      .   S
    N7     O64       3.81480      .   S
    Zr60   O65       1.59955      .   S
    N3     O65       3.86845      .   S
    Zr60   O66       1.47880      .   S
    N24    O66       3.52232      .   S
    Zr67   O68       1.57761      .   S
    N31    O68       3.81726      .   S
    Zr67   O69       1.60021  1_556   S
    N11    O69       3.87008      .   S
    Zr67   O70       1.47837  1_556   S
    N26    O70       3.52152      .   S
    Zr67   O71       1.60032      .   S
    N18    O71       3.87030      .   S
    Zr67   O72       1.57750  1_556   S
    N20    O72       3.81700      .   S
    Zr67   O73       1.47854      .   S
    N5     O73       3.52197      .   S
    Zr74   O75       1.57736  1_556   S
    N23    O75       3.81694      .   S
    Zr74   O76       1.47788      .   S
    N28    O76       3.52062      .   S
    Zr74   O77       1.57799      .   S
    N0     O77       3.81846      .   S
    Zr74   O78       1.60051  1_556   S
    N9     O78       3.87079      .   S
    Zr74   O79       1.60116      .   S
    N25    O79       3.87223      .   S
    Zr74   O80       1.47894  1_556   S
    N20    O80       3.52263      .   S
    Zr81   O82       1.47829  1_456   S
    N16    O82       3.52111      .   S
    Zr81   O83       1.47806      .   S
    N0     O83       3.52069      .   S
    Zr81   O84       1.57746      .   S
    N30    O84       3.81717      .   S
    Zr81   O85       1.57737  1_456   S
    N4     O85       3.81681      .   S
    Zr81   O86       1.59974  1_556   S
    N6     O86       3.86931      .   S
    Zr81   O87       1.60013  1_455   S
    N27    O87       3.86983      .   S
    Zr88   O89       1.47842      .   S
    N25    O89       3.52172      .   S
    Zr88   O90       1.57760      .   S
    N2     O90       3.81770      .   S
    Zr88   O91       1.60082      .   S
    N19    O91       3.87143      .   S
    Zr88   O92       1.57811      .   S
    N18    O92       3.81858      .   S
    Zr88   O93       1.47890      .   S
    N8     O93       3.52281      .   S
    Zr88   O94       1.60089      .   S
    N20    O94       3.87159      .   S
    Zr95   O96       1.60014      .   S
    N16    O96       3.86960      .   S
    Zr95   O97       1.57740      .   S
    N17    O97       3.81700      .   S
    Zr95   O98       1.47883      .   S
    N11    O98       3.52226      .   S
    Zr95   O99       1.47787      .   S
    N27    O99       3.52023      .   S
    Zr95   O100      1.57749      .   S
    N8     O100      3.81693      .   S
    Zr95   O101      1.60020      .   S
    N5     O101      3.86994      .   S
    Zr102  O103      1.60081      .   S
    N1     O103      3.87145      .   S
    Zr102  O104      1.57740      .   S
    N24    O104      3.81712      .   S
    Zr102  O105      1.57806      .   S
    N11    O105      3.81844      .   S
    Zr102  O106      1.60086      .   S
    N31    O106      3.87151      .   S
    Zr102  O107      1.47880      .   S
    N22    O107      3.52260      .   S
    Zr102  O108      1.47877      .   S
    N10    O108      3.52244      .   S
    Zr109  O110      1.59945  1_566   S
    N2     O110      3.86822      .   S
    Zr109  O111      1.57681  1_556   S
    N1     O111      3.81550      .   S
    Zr109  O112      1.47856      .   S
    N29    O112      3.52179      .   S
    Zr109  O113      1.59972      .   S
    N24    O113      3.86893      .   S
    Zr109  O114      1.57694  1_565   S
    N19    O114      3.81567      .   S
    Zr109  O115      1.47836  1_566   S
    N23    O115      3.52158      .   S
    Zr116  O117      1.59986      .   S
    N0     O117      3.86946      .   S
    Zr116  O118      1.57749      .   S
    N22    O118      3.81695      .   S
    Zr116  O119      1.57752      .   S
    N9     O119      3.81719      .   S
    Zr116  O120      1.60012      .   S
    N26    O120      3.86974      .   S
    Zr116  O121      1.47795      .   S
    N6     O121      3.52049      .   S
    Zr116  O122      1.47875      .   S
    N18    O122      3.52219      .   S
    Zr123  O124      1.57723  1_455   S
    N13    O124      3.81691      .   S
    Zr123  O125      1.47815      .   S
    N7     O125      3.52122      .   S
    Zr123  O126      1.57792      .   S
    N6     O126      3.81838      .   S
    Zr123  O127      1.60054      .   S
    N30    O127      3.87075      .   S
    Zr123  O128      1.47839  1_455   S
    N17    O128      3.52134      .   S
    Zr123  O129      1.60044  1_455   S
    N15    O129      3.87054      .   S
    Zr130  O131      1.47883  1_556   S
    N1     O131      3.52264      .   S
    Zr130  O132      1.57806  1_556   S
    N26    O132      3.81846      .   S
    Zr130  O133      1.47823      .   S
    N30    O133      3.52114      .   S
    Zr130  O134      1.60037  1_556   S
    N7     O134      3.87056      .   S
    Zr130  O135      1.57730      .   S
    N3     O135      3.81715      .   S
    Zr130  O136      1.60103      .   S
    N22    O136      3.87174      .   S
    Zr137  O138      1.57681  1_565   S
    N28    O138      3.81572      .   S
    Zr137  O139      1.59921  1_566   S
    N12    O139      3.86786      .   S
    Zr137  O140      1.59956  1_455   S
    N13    O140      3.86850      .   S
    Zr137  O141      1.47783      .   S
    N3     O141      3.52017      .   S
    Zr137  O142      1.47794  1_466   S
    N14    O142      3.52035      .   S
    Zr137  O143      1.57680  1_456   S
    N15    O143      3.81571      .   S
