# CIF file generated by openbabel 2.4.90, see http://openbabel.sf.net
data_I
_chemical_name_common ''
_cell_length_a 21.933
_cell_length_b 21.947
_cell_length_c 15.978
_cell_angle_alpha 89.996
_cell_angle_beta 90
_cell_angle_gamma 89.962
_space_group_name_H-M_alt 'P 1'
_space_group_name_Hall 'P 1'
loop_
    _symmetry_equiv_pos_as_xyz
    x,y,z
loop_
    _atom_site_label
    _atom_site_type_symbol
    _atom_site_fract_x
    _atom_site_fract_y
    _atom_site_fract_z
    _atom_site_occupancy
    Zr0     Zr   0.00006   0.99999   0.99976   1.000
    Zr1     Zr   0.00008   0.49999   0.99977   1.000
    Zr2     Zr   0.50002   0.99998   0.99974   1.000
    Zr3     Zr   0.50002   0.50001   0.99978   1.000
    Zr4     Zr   0.24987   0.99998   0.49970   1.000
    Zr5     Zr   0.24989   0.50006   0.49977   1.000
    Zr6     Zr   0.75020   0.00002   0.49970   1.000
    Zr7     Zr   0.75018   0.49994   0.49975   1.000
    Zr8     Zr   0.00011   0.24984   0.49972   1.000
    Zr9     Zr   0.00002   0.75017   0.49978   1.000
    Zr10    Zr   0.49999   0.24984   0.49973   1.000
    Zr11    Zr   0.50006   0.75015   0.49978   1.000
    Zr12    Zr   0.24988   0.24979   0.99979   1.000
    Zr13    Zr   0.24990   0.75013   0.99977   1.000
    Zr14    Zr   0.75017   0.24988   0.99976   1.000
    Zr15    Zr   0.75020   0.75019   0.99973   1.000
    N16     N    0.17585   0.44279   0.81697   1.000
    O17     O    0.10611   0.46231   0.89793   1.000
    O18     O    0.20518   0.36563   0.90007   1.000
    O19     O    0.20413   0.46906   0.68508   1.000
    N20     N    0.42593   0.80723   0.18232   1.000
    O21     O    0.35608   0.78774   0.10145   1.000
    O22     O    0.45426   0.78109   0.31431   1.000
    O23     O    0.45527   0.88427   0.09927   1.000
    N24     N    0.57431   0.05712   0.31676   1.000
    O25     O    0.54592   0.03089   0.18496   1.000
    O26     O    0.54488   0.13417   0.39992   1.000
    O27     O    0.64411   0.03765   0.39755   1.000
    N28     N    0.17582   0.94296   0.81690   1.000
    O29     O    0.20518   0.86588   0.90003   1.000
    O30     O    0.10609   0.96243   0.89786   1.000
    O31     O    0.20409   0.96913   0.68501   1.000
    N32     N    0.92595   0.30712   0.18231   1.000
    O33     O    0.85622   0.28757   0.10142   1.000
    O34     O    0.95429   0.28089   0.31429   1.000
    O35     O    0.95531   0.38421   0.09931   1.000
    N36     N    0.67583   0.44274   0.81689   1.000
    O37     O    0.60606   0.46226   0.89789   1.000
    O38     O    0.70424   0.46898   0.68504   1.000
    O39     O    0.70528   0.36565   0.90001   1.000
    N40     N    0.07414   0.55725   0.31694   1.000
    O41     O    0.04585   0.53098   0.18506   1.000
    O42     O    0.14388   0.53775   0.39790   1.000
    O43     O    0.04477   0.63437   0.40004   1.000
    N44     N    0.17595   0.80720   0.31721   1.000
    O45     O    0.10614   0.78774   0.39809   1.000
    O46     O    0.20523   0.88425   0.40023   1.000
    O47     O    0.20421   0.78106   0.18522   1.000
    N48     N    0.67592   0.30718   0.31710   1.000
    O49     O    0.70532   0.38423   0.40014   1.000
    O50     O    0.60611   0.28762   0.39801   1.000
    O51     O    0.70431   0.28094   0.18517   1.000
    N52     N    0.17594   0.30714   0.31717   1.000
    O53     O    0.20521   0.38427   0.40018   1.000
    O54     O    0.20420   0.28088   0.18521   1.000
    O55     O    0.10618   0.28756   0.39804   1.000
    N56     N    0.67601   0.80730   0.31713   1.000
    O57     O    0.70540   0.88432   0.40016   1.000
    O58     O    0.60619   0.78782   0.39804   1.000
    O59     O    0.70437   0.78115   0.18517   1.000
    N60     N    0.57433   0.55728   0.31692   1.000
    O61     O    0.64410   0.53772   0.39787   1.000
    O62     O    0.54592   0.53100   0.18507   1.000
    O63     O    0.54492   0.63439   0.40002   1.000
    N64     N    0.07417   0.05705   0.31684   1.000
    O65     O    0.04587   0.03086   0.18500   1.000
    O66     O    0.04482   0.13411   0.39997   1.000
    O67     O    0.14388   0.03758   0.39780   1.000
    N68     N    0.92587   0.94294   0.68264   1.000
    O69     O    0.85617   0.96242   0.60164   1.000
    O70     O    0.95526   0.86589   0.59952   1.000
    O71     O    0.95421   0.96913   0.81449   1.000
    N72     N    0.82427   0.05705   0.18256   1.000
    O73     O    0.79598   0.03087   0.31443   1.000
    O74     O    0.89401   0.03757   0.10161   1.000
    O75     O    0.79490   0.13413   0.09946   1.000
    N76     N    0.92598   0.80723   0.18236   1.000
    O77     O    0.95427   0.78110   0.31434   1.000
    O78     O    0.85625   0.78776   0.10144   1.000
    O79     O    0.95535   0.88426   0.09930   1.000
    N80     N    0.82424   0.55721   0.18253   1.000
    O81     O    0.89400   0.53769   0.10159   1.000
    O82     O    0.79491   0.63436   0.09944   1.000
    O83     O    0.79595   0.53094   0.31440   1.000
    N84     N    0.82416   0.69284   0.68232   1.000
    O85     O    0.79488   0.61572   0.59932   1.000
    O86     O    0.89392   0.71243   0.60145   1.000
    O87     O    0.79589   0.71911   0.81428   1.000
    N88     N    0.42574   0.44272   0.68261   1.000
    O89     O    0.35596   0.46228   0.60165   1.000
    O90     O    0.45513   0.36561   0.59950   1.000
    O91     O    0.45413   0.46901   0.81446   1.000
    N92     N    0.57414   0.19276   0.81718   1.000
    O93     O    0.54479   0.11571   0.90021   1.000
    O94     O    0.64398   0.21225   0.89807   1.000
    O95     O    0.54580   0.21890   0.68519   1.000
    N96     N    0.42582   0.30716   0.18235   1.000
    O97     O    0.35603   0.28755   0.10147   1.000
    O98     O    0.45418   0.28092   0.31430   1.000
    O99     O    0.45518   0.38426   0.09934   1.000
    N100    N    0.82413   0.19280   0.68226   1.000
    O101    O    0.79485   0.11575   0.59923   1.000
    O102    O    0.79586   0.21895   0.81427   1.000
    O103    O    0.89396   0.21226   0.60140   1.000
    N104    N    0.32414   0.69282   0.68241   1.000
    O105    O    0.39395   0.71238   0.60150   1.000
    O106    O    0.29575   0.71907   0.81435   1.000
    O107    O    0.29474   0.61577   0.59937   1.000
    N108    N    0.32420   0.05706   0.18266   1.000
    O109    O    0.39397   0.03759   0.10166   1.000
    O110    O    0.29474   0.13409   0.09953   1.000
    O111    O    0.29581   0.03086   0.31449   1.000
    N112    N    0.42575   0.94289   0.68264   1.000
    O113    O    0.35596   0.96236   0.60166   1.000
    O114    O    0.45518   0.86584   0.59953   1.000
    O115    O    0.45414   0.96910   0.81447   1.000
    N116    N    0.32405   0.19270   0.68228   1.000
    O117    O    0.29465   0.11568   0.59926   1.000
    O118    O    0.39386   0.21218   0.60141   1.000
    O119    O    0.29570   0.21884   0.81430   1.000
    N120    N    0.32423   0.55727   0.18264   1.000
    O121    O    0.29583   0.53102   0.31449   1.000
    O122    O    0.39398   0.53775   0.10165   1.000
    O123    O    0.29477   0.63435   0.09952   1.000
    N124    N    0.92591   0.44274   0.68258   1.000
    O125    O    0.85618   0.46224   0.60162   1.000
    O126    O    0.95531   0.36563   0.59947   1.000
    O127    O    0.95425   0.46901   0.81445   1.000
    N128    N    0.07405   0.19278   0.81714   1.000
    O129    O    0.04581   0.21891   0.68515   1.000
    O130    O    0.04472   0.11573   0.90020   1.000
    O131    O    0.14380   0.21224   0.89807   1.000
    N132    N    0.67586   0.94292   0.81680   1.000
    O133    O    0.70426   0.96913   0.68495   1.000
    O134    O    0.60609   0.96238   0.89778   1.000
    O135    O    0.70532   0.86589   0.89995   1.000
    N136    N    0.07408   0.69288   0.81714   1.000
    O137    O    0.04477   0.61578   0.90018   1.000
    O138    O    0.14383   0.71244   0.89805   1.000
    O139    O    0.04578   0.71911   0.68519   1.000
    N140    N    0.57424   0.69283   0.81714   1.000
    O141    O    0.54588   0.71907   0.68520   1.000
    O142    O    0.64405   0.71243   0.89804   1.000
    O143    O    0.54488   0.61574   0.90018   1.000
loop_
    _geom_bond_atom_site_label_1
    _geom_bond_atom_site_label_2
    _geom_bond_distance
    _geom_bond_site_symmetry_2
    _ccdc_geom_bond_type
    N16    O17       2.04828      .   S
    Zr1    O17       2.95612      .   S
    N16    O18       2.24544      .   S
    Zr12   O18       3.15597      .   S
    N16    O19       2.27118      .   S
    Zr5    O19       3.19972      .   S
    N20    O21       2.04946      .   S
    Zr13   O21       2.95766  1_556   S
    N20    O22       2.27217      .   S
    Zr11   O22       3.20162      .   S
    N20    O23       2.24374      .   S
    Zr2    O23       3.15361  1_556   S
    N24    O25       2.27034      .   S
    Zr2    O25       3.19891  1_566   S
    N24    O26       2.24507      .   S
    Zr10   O26       3.15520      .   S
    N24    O27       2.04735      .   S
    Zr6    O27       2.95927      .   S
    N28    O29       2.24483      .   S
    Zr13   O29       3.15460      .   S
    N28    O30       2.04796      .   S
    Zr0    O30       2.95566      .   S
    N28    O31       2.27049      .   S
    Zr4    O31       3.19909      .   S
    N32    O33       2.04802      .   S
    Zr14   O33       2.95577  1_556   S
    N32    O34       2.27241      .   S
    Zr8    O34       3.20183  1_455   S
    N32    O35       2.24444      .   S
    Zr1    O35       3.15474  1_456   S
    N36    O37       2.04911      .   S
    Zr3    O37       2.95707      .   S
    N36    O38       2.27131      .   S
    Zr7    O38       3.20040      .   S
    N36    O39       2.24527      .   S
    Zr14   O39       3.15615      .   S
    N40    O41       2.27114      .   S
    Zr1    O41       3.19948  1_556   S
    N40    O42       2.04821      .   S
    Zr5    O42       2.95589      .   S
    N40    O43       2.24541      .   S
    Zr9    O43       3.15585      .   S
    N44    O45       2.04872      .   S
    Zr9    O45       2.95631      .   S
    N44    O46       2.24346      .   S
    Zr4    O46       3.15276      .   S
    N44    O47       2.27173      .   S
    Zr13   O47       3.20074  1_556   S
    N48    O49       2.24444      .   S
    Zr7    O49       3.15498      .   S
    N48    O50       2.04958      .   S
    Zr10   O50       2.95781      .   S
    N48    O51       2.27217      .   S
    Zr14   O51       3.20184  1_556   S
    N52    O53       2.24464      .   S
    Zr5    O53       3.15504      .   S
    N52    O54       2.27182      .   S
    Zr12   O54       3.20102  1_556   S
    N52    O55       2.04835      .   S
    Zr8    O55       2.95632      .   S
    N56    O57       2.24376      .   S
    Zr6    O57       3.15387  1_545   S
    N56    O58       2.04934      .   S
    Zr11   O58       2.95753      .   S
    N56    O59       2.27199      .   S
    Zr15   O59       3.20161  1_556   S
    N60    O61       2.04907      .   S
    Zr7    O61       2.95765      .   S
    N60    O62       2.27144      .   S
    Zr3    O62       3.20041  1_556   S
    N60    O63       2.24534      .   S
    Zr11   O63       3.15612      .   S
    N64    O65       2.27023      .   S
    Zr0    O65       3.19842  1_566   S
    N64    O66       2.24462      .   S
    Zr8    O66       3.15425      .   S
    N64    O67       2.04754      .   S
    Zr4    O67       2.95509  1_565   S
    N68    O69       2.04785      .   S
    Zr6    O69       2.95529  1_545   S
    N68    O70       2.24465      .   S
    Zr9    O70       3.15446  1_455   S
    N68    O71       2.27052      .   S
    Zr0    O71       3.19913  1_455   S
    N72    O73       2.27035      .   S
    Zr6    O73       3.19855      .   S
    N72    O74       2.04803      .   S
    Zr0    O74       2.95589  1_466   S
    N72    O75       2.24462      .   S
    Zr14   O75       3.15435  1_556   S
    N76    O77       2.27163      .   S
    Zr9    O77       3.20088  1_455   S
    N76    O78       2.04807      .   S
    Zr15   O78       2.95528  1_556   S
    N76    O79       2.24395      .   S
    Zr0    O79       3.15359  1_456   S
    N80    O81       2.04847      .   S
    Zr1    O81       2.95658  1_456   S
    N80    O82       2.24529      .   S
    Zr15   O82       3.15578  1_556   S
    N80    O83       2.27104      .   S
    Zr7    O83       3.20028      .   S
    N84    O85       2.24458      .   S
    Zr7    O85       3.15480      .   S
    N84    O86       2.04860      .   S
    Zr9    O86       2.95678  1_455   S
    N84    O87       2.27198      .   S
    Zr15   O87       3.20138      .   S
    N88    O89       2.04909      .   S
    Zr5    O89       2.95749      .   S
    N88    O90       2.24542      .   S
    Zr10   O90       3.15622      .   S
    N88    O91       2.27155      .   S
    Zr3    O91       3.20064      .   S
    N92    O93       2.24376      .   S
    Zr2    O93       3.15387  1_565   S
    N92    O94       2.04961      .   S
    Zr14   O94       2.95786      .   S
    N92    O95       2.27214      .   S
    Zr10   O95       3.20164      .   S
    N96    O97       2.04934      .   S
    Zr12   O97       2.95788  1_556   S
    N96    O98       2.27223      .   S
    Zr10   O98       3.20179      .   S
    N96    O99       2.24449      .   S
    Zr3    O99       3.15500  1_556   S
    N100   O101      2.24362      .   S
    Zr6    O101      3.15326      .   S
    N100   O102      2.27205      .   S
    Zr14   O102      3.20135      .   S
    N100   O103      2.04893      .   S
    Zr8    O103      2.95684  1_455   S
    N104   O105      2.04947      .   S
    Zr11   O105      2.95761      .   S
    N104   O106      2.27224      .   S
    Zr13   O106      3.20205      .   S
    N104   O107      2.24445      .   S
    Zr5    O107      3.15498      .   S
    N108   O109      2.04887      .   S
    Zr2    O109      2.95671  1_566   S
    N108   O110      2.24456      .   S
    Zr12   O110      3.15471  1_556   S
    N108   O111      2.27059      .   S
    Zr4    O111      3.19879  1_565   S
    N112   O113      2.04912      .   S
    Zr4    O113      2.95760      .   S
    N112   O114      2.24469      .   S
    Zr11   O114      3.15479      .   S
    N112   O115      2.27078      .   S
    Zr2    O115      3.19945      .   S
    N116   O117      2.24360      .   S
    Zr4    O117      3.15396  1_565   S
    N116   O118      2.04898      .   S
    Zr10   O118      2.95683      .   S
    N116   O119      2.27259      .   S
    Zr12   O119      3.20233      .   S
    N120   O121      2.27119      .   S
    Zr5    O121      3.20025      .   S
    N120   O122      2.04883      .   S
    Zr3    O122      2.95674  1_556   S
    N120   O123      2.24538      .   S
    Zr13   O123      3.15613  1_556   S
    N124   O125      2.04804      .   S
    Zr7    O125      2.95573      .   S
    N124   O126      2.24555      .   S
    Zr8    O126      3.15606  1_455   S
    N124   O127      2.27126      .   S
    Zr1    O127      3.20027  1_455   S
    N128   O129      2.27144      .   S
    Zr8    O129      3.20039      .   S
    N128   O130      2.24394      .   S
    Zr0    O130      3.15362  1_565   S
    N128   O131      2.04840      .   S
    Zr12   O131      2.95575      .   S
    N132   O133      2.27094      .   S
    Zr6    O133      3.19948  1_545   S
    N132   O134      2.04885      .   S
    Zr2    O134      2.95712      .   S
    N132   O135      2.24473      .   S
    Zr15   O135      3.15502      .   S
    N136   O137      2.24470      .   S
    Zr1    O137      3.15493      .   S
    N136   O138      2.04857      .   S
    Zr13   O138      2.95645      .   S
    N136   O139      2.27174      .   S
    Zr9    O139      3.20108      .   S
    N140   O141      2.27218      .   S
    Zr11   O141      3.20172      .   S
    N140   O142      2.04952      .   S
    Zr15   O142      2.95810      .   S
    N140   O143      2.24464      .   S
    Zr3    O143      3.15522      .   S
