# CIF file generated by openbabel 2.4.90, see http://openbabel.sf.net
data_I
_chemical_name_common ''
_cell_length_a 23.037
_cell_length_b 15.262
_cell_length_c 18.164
_cell_angle_alpha 89.982
_cell_angle_beta 90
_cell_angle_gamma 89.902
_space_group_name_H-M_alt 'P 1'
_space_group_name_Hall 'P 1'
loop_
    _symmetry_equiv_pos_as_xyz
    x,y,z
loop_
    _atom_site_label
    _atom_site_type_symbol
    _atom_site_fract_x
    _atom_site_fract_y
    _atom_site_fract_z
    _atom_site_occupancy
    C0      C    0.24999   0.96785   0.98000   1.000
    C1      C    0.75002   0.96785   0.98000   1.000
    C2      C    0.25000   0.03213   0.01995   1.000
    C3      C    0.75002   0.03213   0.01995   1.000
    C4      C    0.25000   0.53212   0.48002   1.000
    C5      C    0.75002   0.53212   0.48002   1.000
    C6      C    0.25000   0.46785   0.51995   1.000
    C7      C    0.75001   0.46785   0.51995   1.000
loop_
    _geom_bond_atom_site_label_1
    _geom_bond_atom_site_label_2
    _geom_bond_distance
    _geom_bond_site_symmetry_2
    _ccdc_geom_bond_type
    C3     C1        1.22039  1_544   S
    C2     C0        1.22039  1_544   S
    C4     C6        1.21973      .   S
    C5     C7        1.21973      .   S
