# CIF file generated by openbabel 2.4.90, see http://openbabel.sf.net
data_I
_chemical_name_common ''
_cell_length_a 23.037
_cell_length_b 15.262
_cell_length_c 18.164
_cell_angle_alpha 89.982
_cell_angle_beta 90
_cell_angle_gamma 89.902
_space_group_name_H-M_alt 'P 1'
_space_group_name_Hall 'P 1'
loop_
    _symmetry_equiv_pos_as_xyz
    x,y,z
loop_
    _atom_site_label
    _atom_site_type_symbol
    _atom_site_fract_x
    _atom_site_fract_y
    _atom_site_fract_z
    _atom_site_occupancy
    Zn0     Zn   0.75002   0.55192   0.09709   1.000
    Zn1     Zn   0.25000   0.44805   0.90280   1.000
    Zn2     Zn   0.75001   0.44805   0.90280   1.000
    Zn3     Zn   0.25001   0.94801   0.59705   1.000
    Zn4     Zn   0.75001   0.94801   0.59705   1.000
    Zn5     Zn   0.25000   0.05196   0.40290   1.000
    Zn6     Zn   0.75001   0.05196   0.40290   1.000
    Zn7     Zn   0.25001   0.55192   0.09709   1.000
    C8      C    0.25000   0.85124   0.72485   1.000
    C9      C    0.75002   0.85124   0.72485   1.000
    C10     C    0.24995   0.64580   0.94315   1.000
    C11     C    0.74996   0.64580   0.94315   1.000
    C12     C    0.25000   0.14873   0.27511   1.000
    C13     C    0.75001   0.14873   0.27511   1.000
    C14     C    0.25005   0.35418   0.05682   1.000
    C15     C    0.75007   0.35418   0.05682   1.000
    C16     C    0.25001   0.64879   0.22484   1.000
    C17     C    0.75002   0.64879   0.22484   1.000
    C18     C    0.25006   0.85418   0.44312   1.000
    C19     C    0.75007   0.85418   0.44312   1.000
    C20     C    0.25000   0.35119   0.77513   1.000
    C21     C    0.75001   0.35119   0.77513   1.000
    C22     C    0.24995   0.14580   0.55685   1.000
    C23     C    0.74996   0.14580   0.55685   1.000
    O24     O    0.24996   0.63988   0.01302   1.000
    O25     O    0.74997   0.63988   0.01302   1.000
    O26     O    0.24994   0.58236   0.89767   1.000
    O27     O    0.74994   0.58236   0.89767   1.000
    O28     O    0.25001   0.93343   0.70593   1.000
    O29     O    0.75001   0.93343   0.70593   1.000
    O30     O    0.25001   0.78838   0.68103   1.000
    O31     O    0.75001   0.78838   0.68103   1.000
    O32     O    0.25005   0.36009   0.98695   1.000
    O33     O    0.75006   0.36009   0.98695   1.000
    O34     O    0.25008   0.41762   0.10230   1.000
    O35     O    0.75008   0.41762   0.10230   1.000
    O36     O    0.25000   0.06654   0.29404   1.000
    O37     O    0.75001   0.06654   0.29404   1.000
    O38     O    0.25001   0.21159   0.31894   1.000
    O39     O    0.75002   0.21159   0.31894   1.000
    O40     O    0.25005   0.86005   0.51297   1.000
    O41     O    0.75006   0.86005   0.51297   1.000
    O42     O    0.25007   0.91765   0.39764   1.000
    O43     O    0.75008   0.91765   0.39764   1.000
    O44     O    0.25000   0.56659   0.20595   1.000
    O45     O    0.75001   0.56659   0.20595   1.000
    O46     O    0.25001   0.71166   0.18099   1.000
    O47     O    0.75002   0.71166   0.18099   1.000
    O48     O    0.24996   0.13992   0.48700   1.000
    O49     O    0.74997   0.13992   0.48700   1.000
    O50     O    0.24994   0.08233   0.60233   1.000
    O51     O    0.74995   0.08233   0.60233   1.000
    O52     O    0.25001   0.43338   0.79400   1.000
    O53     O    0.75002   0.43338   0.79401   1.000
    O54     O    0.25000   0.28832   0.81898   1.000
    O55     O    0.75001   0.28832   0.81898   1.000
    Ts56    Ts   0.71829   0.55242   0.09555   1.000
    Ts57    Ts   0.78174   0.55240   0.09555   1.000
    Ts58    Ts   0.21828   0.44757   0.90437   1.000
    Ts59    Ts   0.28173   0.44755   0.90437   1.000
    Ts60    Ts   0.71829   0.44757   0.90437   1.000
    Ts61    Ts   0.78174   0.44755   0.90437   1.000
    Ts62    Ts   0.21828   0.94752   0.59550   1.000
    Ts63    Ts   0.28173   0.94750   0.59551   1.000
    Ts64    Ts   0.71829   0.94752   0.59550   1.000
    Ts65    Ts   0.78174   0.94750   0.59551   1.000
    Ts66    Ts   0.28173   0.05246   0.40445   1.000
    Ts67    Ts   0.21828   0.05248   0.40445   1.000
    Ts68    Ts   0.71829   0.05248   0.40445   1.000
    Ts69    Ts   0.78174   0.05246   0.40445   1.000
    Ts70    Ts   0.21828   0.55242   0.09555   1.000
    Ts71    Ts   0.28173   0.55240   0.09555   1.000
    Og72    Og   0.24999   0.84610   0.75226   1.000
    Og73    Og   0.75002   0.84610   0.75226   1.000
    Og74    Og   0.24995   0.67615   0.93271   1.000
    Og75    Og   0.74997   0.67615   0.93271   1.000
    Og76    Og   0.25000   0.15387   0.24741   1.000
    Og77    Og   0.75002   0.15387   0.24741   1.000
    Og78    Og   0.25005   0.32382   0.06726   1.000
    Og79    Og   0.75006   0.32382   0.06726   1.000
    Og80    Og   0.25001   0.65393   0.25223   1.000
    Og81    Og   0.75002   0.65393   0.25223   1.000
    Og82    Og   0.25005   0.82383   0.43265   1.000
    Og83    Og   0.75006   0.82383   0.43265   1.000
    Og84    Og   0.25000   0.34604   0.74772   1.000
    Og85    Og   0.75001   0.34604   0.74772   1.000
    Og86    Og   0.24996   0.17614   0.56729   1.000
    Og87    Og   0.74997   0.17614   0.56729   1.000
loop_
    _geom_bond_atom_site_label_1
    _geom_bond_atom_site_label_2
    _geom_bond_distance
    _geom_bond_site_symmetry_2
    _ccdc_geom_bond_type
    O25    Zn0       2.03291      .   S
    O25    C11       1.27230  1_554   S
    O24    Zn7       2.03291      .   S
    O24    C10       1.27230  1_554   S
    C15    O35       1.27295      .   S
    C15    O33       1.27230  1_554   S
    C14    O34       1.27295      .   S
    C14    O32       1.27230  1_554   S
    Zn0    O35       2.05187      .   S
    Zn0    O45       1.99004      .   S
    Zn7    O34       2.05187      .   S
    Zn7    O44       1.99004      .   S
    O46    C16       1.24685      .   S
    O47    C17       1.24685      .   S
    O44    C16       1.30064      .   S
    O45    C17       1.30064      .   S
    C12    O36       1.30055      .   S
    C12    O38       1.24691      .   S
    C13    O37       1.30055      .   S
    C13    O39       1.24691      .   S
    O36    Zn5       1.98974      .   S
    O37    Zn6       1.98974      .   S
    O43    Zn6       2.05218  1_565   S
    O43    C19       1.27291      .   S
    O42    Zn5       2.05218  1_565   S
    O42    C18       1.27291      .   S
    Zn5    O48       2.03395      .   S
    Zn6    O49       2.03396      .   S
    C19    O41       1.27195      .   S
    C18    O40       1.27195      .   S
    O48    C22       1.27195      .   S
    O49    C23       1.27195      .   S
    O41    Zn4       2.03367      .   S
    O40    Zn3       2.03367      .   S
    C23    O51       1.27291      .   S
    C22    O50       1.27291      .   S
    Zn4    O51       2.05220  1_565   S
    Zn4    O29       1.99010      .   S
    Zn3    O50       2.05220  1_565   S
    Zn3    O28       1.99010      .   S
    O31    C9        1.24679      .   S
    O30    C8        1.24680      .   S
    O28    C8        1.30049      .   S
    O29    C9        1.30049      .   S
    C21    O53       1.30059      .   S
    C21    O55       1.24684      .   S
    C20    O52       1.30055      .   S
    C20    O54       1.24684      .   S
    O52    Zn1       1.98896      .   S
    O53    Zn2       1.98878      .   S
    O26    Zn1       2.05180      .   S
    O26    C10       1.27296      .   S
    O27    Zn2       2.05180      .   S
    O27    C11       1.27296      .   S
    Zn1    O32       2.03401      .   S
    Zn2    O33       2.03400      .   S
    Zn0    Ts56      0.73145      .   S
    Zn0    Ts57      0.73144      .   S
    Zn1    Ts58      0.73146      .   S
    Zn1    Ts59      0.73147      .   S
    Zn2    Ts60      0.73145      .   S
    Zn2    Ts61      0.73148      .   S
    Zn3    Ts62      0.73143      .   S
    Zn3    Ts63      0.73145      .   S
    Zn4    Ts64      0.73143      .   S
    Zn4    Ts65      0.73145      .   S
    Zn5    Ts66      0.73144      .   S
    Zn5    Ts67      0.73146      .   S
    Zn6    Ts68      0.73145      .   S
    Zn6    Ts69      0.73144      .   S
    Zn7    Ts70      0.73145      .   S
    Zn7    Ts71      0.73144      .   S
    C8     Og72      0.50394      .   S
    C9     Og73      0.50394      .   S
    C10    Og74      0.50055      .   S
    C11    Og75      0.50055      .   S
    C12    Og76      0.50927      .   S
    C13    Og77      0.50927      .   S
    C14    Og78      0.50055      .   S
    C15    Og79      0.50055      .   S
    C16    Og80      0.50364      .   S
    C17    Og81      0.50364      .   S
    C18    Og82      0.50076      .   S
    C19    Og83      0.50076      .   S
    C20    Og84      0.50399      .   S
    C21    Og85      0.50399      .   S
    C22    Og86      0.50056      .   S
    C23    Og87      0.50056      .   S
