# CIF file generated by openbabel 2.4.90, see http://openbabel.sf.net
data_I
_chemical_name_common ''
_cell_length_a 23.037
_cell_length_b 15.262
_cell_length_c 18.164
_cell_angle_alpha 89.982
_cell_angle_beta 90
_cell_angle_gamma 89.902
_space_group_name_H-M_alt 'P 1'
_space_group_name_Hall 'P 1'
loop_
    _symmetry_equiv_pos_as_xyz
    x,y,z
loop_
    _atom_site_label
    _atom_site_type_symbol
    _atom_site_fract_x
    _atom_site_fract_y
    _atom_site_fract_z
    _atom_site_occupancy
    N0      N    0.50001   0.94486   0.59496   1.000
    N1      N    0.50001   0.44493   0.90497   1.000
    N2      N    0.50001   0.55504   0.09499   1.000
    N3      N    0.75003   0.67794   0.38341   1.000
    N4      N    0.75000   0.32203   0.61653   1.000
    O5      O    0.75001   0.43830   0.54010   1.000
    N6      N    0.00001   0.94486   0.59495   1.000
    N7      N    0.50000   0.05511   0.40497   1.000
    N8      N    0.25002   0.17791   0.11642   1.000
    N9      N    0.24998   0.82206   0.88344   1.000
    O10     O    0.24999   0.93831   0.95986   1.000
    N11     N    0.00000   0.05511   0.40497   1.000
    N12     N    0.25002   0.67794   0.38341   1.000
    N13     N    0.24999   0.32203   0.61653   1.000
    O14     O    0.25000   0.43830   0.54010   1.000
    N15     N    0.00001   0.55504   0.09499   1.000
    N16     N    0.75003   0.17791   0.11642   1.000
    N17     N    0.75000   0.82206   0.88344   1.000
    O18     O    0.75002   0.06166   0.04007   1.000
    N19     N    0.00001   0.44493   0.90497   1.000
    Zr20    Zr   0.25000   0.99999   0.49998   1.000
    O21     O    0.24999   0.12833   0.54725   1.000
    O22     O    0.25002   0.87164   0.45270   1.000
    O23     O    0.25001   0.08358   0.33749   1.000
    O24     O    0.25000   0.91639   0.66234   1.000
    O25     O    0.32440   0.02695   0.45254   1.000
    O26     O    0.17561   0.02695   0.45254   1.000
    O27     O    0.32440   0.97302   0.54741   1.000
    O28     O    0.17561   0.97303   0.54741   1.000
    Zr29    Zr   0.75001   0.99999   0.49998   1.000
    O30     O    0.67561   0.02696   0.45254   1.000
    O31     O    0.82441   0.02695   0.45254   1.000
    O32     O    0.75003   0.87164   0.45270   1.000
    O33     O    0.75000   0.12833   0.54725   1.000
    O34     O    0.75002   0.08358   0.33749   1.000
    O35     O    0.67562   0.97303   0.54741   1.000
    O36     O    0.82441   0.97302   0.54741   1.000
    O37     O    0.75001   0.91639   0.66234   1.000
    Zr38    Zr   0.25000   0.49999   0.99998   1.000
    O39     O    0.25002   0.37163   0.04722   1.000
    O40     O    0.24999   0.62834   0.95272   1.000
    O41     O    0.25000   0.41637   0.83763   1.000
    O42     O    0.17561   0.47306   0.95252   1.000
    O43     O    0.32440   0.47305   0.95252   1.000
    O44     O    0.17561   0.52692   0.04743   1.000
    O45     O    0.32440   0.52691   0.04743   1.000
    O46     O    0.25001   0.58361   0.16232   1.000
    Zr47    Zr   0.75001   0.49999   0.99998   1.000
    O48     O    0.75002   0.58361   0.16232   1.000
    O49     O    0.75000   0.62834   0.95272   1.000
    O50     O    0.75003   0.37163   0.04722   1.000
    O51     O    0.82441   0.52691   0.04743   1.000
    O52     O    0.67562   0.52692   0.04743   1.000
    O53     O    0.75001   0.41637   0.83763   1.000
    O54     O    0.82441   0.47305   0.95252   1.000
    O55     O    0.67562   0.47306   0.95252   1.000
loop_
    _geom_bond_atom_site_label_1
    _geom_bond_atom_site_label_2
    _geom_bond_distance
    _geom_bond_site_symmetry_2
    _ccdc_geom_bond_type
    N3     O5        4.63372      .   S
    N4     O5        2.25272      .   S
    N8     O10       4.63313  1_544   S
    N9     O10       2.25302      .   S
    N12    O14       4.63372      .   S
    N13    O14       2.25272      .   S
    N17    O18       4.63387  1_566   S
    N16    O18       2.25228      .   S
    Zr20   O21       2.13895  1_565   S
    N13    O21       3.21329      .   S
    Zr20   O22       2.13907      .   S
    N12    O22       3.21336      .   S
    Zr20   O23       3.21517  1_565   S
    N8     O23       4.26525      .   S
    Zr20   O24       3.21286      .   S
    N9     O24       4.26585      .   S
    Zr20   O25       1.96251  1_565   S
    N7     O25       4.15959      .   S
    Zr20   O26       1.96133  1_565   S
    N11    O26       4.15812      .   S
    Zr20   O27       1.96129      .   S
    N0     O27       4.15817      .   S
    Zr20   O28       1.96235      .   S
    N6     O28       4.15931      .   S
    Zr29   O30       1.96137  1_565   S
    N7     O30       4.15827      .   S
    Zr29   O31       1.96246  1_565   S
    N11    O31       4.15944  1_455   S
    Zr29   O32       2.13907      .   S
    N3     O32       3.21336      .   S
    Zr29   O33       2.13895  1_565   S
    N4     O33       3.21328      .   S
    Zr29   O34       3.21517  1_565   S
    N16    O34       4.26525      .   S
    Zr29   O35       1.96242      .   S
    N0     O35       4.15949      .   S
    Zr29   O36       1.96122      .   S
    N6     O36       4.15799  1_455   S
    Zr29   O37       3.21286      .   S
    N17    O37       4.26585      .   S
    Zr38   O39       2.13836  1_556   S
    N8     O39       3.21234      .   S
    Zr38   O40       2.13851      .   S
    N9     O40       3.21287      .   S
    Zr38   O41       3.21361      .   S
    N13    O41       4.26669      .   S
    Zr38   O42       1.96262      .   S
    N19    O42       4.15936      .   S
    Zr38   O43       1.96149      .   S
    N1     O43       4.15817      .   S
    Zr38   O44       1.96141  1_556   S
    N15    O44       4.15806      .   S
    Zr38   O45       1.96263  1_556   S
    N2     O45       4.15957      .   S
    Zr38   O46       3.21347  1_556   S
    N12    O46       4.26652      .   S
    Zr47   O48       3.21346  1_556   S
    N3     O48       4.26652      .   S
    Zr47   O49       2.13851      .   S
    N17    O49       3.21287      .   S
    Zr47   O50       2.13836  1_556   S
    N16    O50       3.21234      .   S
    Zr47   O51       1.96258  1_556   S
    N15    O51       4.15941  1_455   S
    Zr47   O52       1.96145  1_556   S
    N2     O52       4.15822      .   S
    Zr47   O53       3.21362      .   S
    N4     O53       4.26669      .   S
    Zr47   O54       1.96144      .   S
    N19    O54       4.15801  1_455   S
    Zr47   O55       1.96267      .   S
    N1     O55       4.15952      .   S
