# CIF file generated by openbabel 2.4.90, see http://openbabel.sf.net
data_I
_chemical_name_common ''
_cell_length_a 23.037
_cell_length_b 15.262
_cell_length_c 18.164
_cell_angle_alpha 89.982
_cell_angle_beta 90
_cell_angle_gamma 89.902
_space_group_name_H-M_alt 'P 1'
_space_group_name_Hall 'P 1'
loop_
    _symmetry_equiv_pos_as_xyz
    x,y,z
loop_
    _atom_site_label
    _atom_site_type_symbol
    _atom_site_fract_x
    _atom_site_fract_y
    _atom_site_fract_z
    _atom_site_occupancy
    C0      C    0.25001   0.55192   0.09709   1.000
    C1      C    0.75002   0.55192   0.09709   1.000
    C2      C    0.25000   0.44805   0.90280   1.000
    C3      C    0.75001   0.44805   0.90280   1.000
    C4      C    0.25001   0.94801   0.59705   1.000
    C5      C    0.75001   0.94801   0.59705   1.000
    C6      C    0.25000   0.05196   0.40290   1.000
    C7      C    0.75001   0.05196   0.40290   1.000
    C8      C    0.34891   0.67773   0.04775   1.000
    C9      C    0.84892   0.67773   0.04775   1.000
    C10     C    0.45621   0.68597   0.04826   1.000
    C11     C    0.95622   0.68597   0.04826   1.000
    C12     C    0.45704   0.42644   0.14515   1.000
    C13     C    0.95705   0.42644   0.14515   1.000
    C14     C    0.34986   0.43065   0.14027   1.000
    C15     C    0.84986   0.43065   0.14027   1.000
    C16     C    0.34921   0.32222   0.95227   1.000
    C17     C    0.84922   0.32222   0.95227   1.000
    C18     C    0.45653   0.31401   0.95176   1.000
    C19     C    0.95654   0.31401   0.95176   1.000
    C20     C    0.45674   0.57349   0.85477   1.000
    C21     C    0.95675   0.57349   0.85477   1.000
    C22     C    0.34957   0.56924   0.85963   1.000
    C23     C    0.84958   0.56924   0.85963   1.000
    C24     C    0.15109   0.82221   0.54768   1.000
    C25     C    0.65111   0.82221   0.54768   1.000
    C26     C    0.04380   0.81396   0.54822   1.000
    C27     C    0.54381   0.81396   0.54822   1.000
    C28     C    0.04297   0.07343   0.64514   1.000
    C29     C    0.54298   0.07343   0.64514   1.000
    C30     C    0.15016   0.06923   0.64024   1.000
    C31     C    0.65017   0.06923   0.64024   1.000
    C32     C    0.15079   0.17779   0.45234   1.000
    C33     C    0.65080   0.17779   0.45234   1.000
    C34     C    0.04347   0.18601   0.45100   1.000
    C35     C    0.54348   0.18601   0.45100   1.000
    C36     C    0.04328   0.92659   0.35478   1.000
    C37     C    0.54329   0.92659   0.35478   1.000
    C38     C    0.15045   0.93083   0.35960   1.000
    C39     C    0.65046   0.93083   0.35967   1.000
    C40     C    0.15110   0.32225   0.95222   1.000
    C41     C    0.65111   0.32225   0.95222   1.000
    C42     C    0.04380   0.31400   0.95171   1.000
    C43     C    0.54381   0.31400   0.95171   1.000
    C44     C    0.04296   0.57354   0.85481   1.000
    C45     C    0.54297   0.57354   0.85481   1.000
    C46     C    0.15015   0.56933   0.85970   1.000
    C47     C    0.65016   0.56933   0.85970   1.000
    C48     C    0.15080   0.67775   0.04770   1.000
    C49     C    0.65081   0.67775   0.04770   1.000
    C50     C    0.04348   0.68597   0.04821   1.000
    C51     C    0.54349   0.68597   0.04821   1.000
    C52     C    0.04327   0.42648   0.14520   1.000
    C53     C    0.54328   0.42648   0.14520   1.000
    C54     C    0.15044   0.43073   0.14034   1.000
    C55     C    0.65045   0.43073   0.14034   1.000
    C56     C    0.34891   0.17777   0.45229   1.000
    C57     C    0.84892   0.17777   0.45229   1.000
    C58     C    0.45621   0.18602   0.45175   1.000
    C59     C    0.95622   0.18602   0.45175   1.000
    C60     C    0.45704   0.92654   0.35483   1.000
    C61     C    0.95705   0.92654   0.35483   1.000
    C62     C    0.34985   0.93075   0.35973   1.000
    C63     C    0.84986   0.93075   0.35973   1.000
    C64     C    0.34922   0.82218   0.54763   1.000
    C65     C    0.84923   0.82218   0.54763   1.000
    C66     C    0.45654   0.81396   0.54817   1.000
    C67     C    0.95655   0.81396   0.54817   1.000
    C68     C    0.45673   0.07339   0.64519   1.000
    C69     C    0.95674   0.07339   0.64519   1.000
    C70     C    0.34956   0.06914   0.64030   1.000
    C71     C    0.84957   0.06914   0.64030   1.000
    C72     C    0.25001   0.97313   0.83241   1.000
    C73     C    0.75003   0.97313   0.83241   1.000
    C74     C    0.24996   0.79693   0.01926   1.000
    C75     C    0.74998   0.79693   0.01926   1.000
    C76     C    0.24997   0.69512   0.79763   1.000
    C77     C    0.74998   0.69512   0.79763   1.000
    C78     C    0.24999   0.02685   0.16756   1.000
    C79     C    0.75000   0.02685   0.16756   1.000
    C80     C    0.25004   0.20304   0.98070   1.000
    C81     C    0.75005   0.20304   0.98070   1.000
    C82     C    0.25005   0.30486   0.20230   1.000
    C83     C    0.75005   0.30486   0.20230   1.000
    C84     C    0.24999   0.52690   0.33242   1.000
    C85     C    0.75000   0.52690   0.33242   1.000
    C86     C    0.25004   0.70301   0.51922   1.000
    C87     C    0.75005   0.70301   0.51922   1.000
    C88     C    0.25004   0.80493   0.29759   1.000
    C89     C    0.75005   0.80493   0.29759   1.000
    C90     C    0.25002   0.47307   0.66755   1.000
    C91     C    0.75003   0.47307   0.66755   1.000
    C92     C    0.24996   0.29696   0.48075   1.000
    C93     C    0.74998   0.29696   0.48075   1.000
    C94     C    0.24997   0.19504   0.70238   1.000
    C95     C    0.74998   0.19504   0.70238   1.000
    C96     C    0.37506   0.62344   0.06834   1.000
    C97     C    0.87507   0.62344   0.06834   1.000
    C98     C    0.43533   0.62709   0.06912   1.000
    C99     C    0.93534   0.62709   0.06912   1.000
    C100    C    0.46779   0.55591   0.09603   1.000
    C101    C    0.96780   0.55591   0.09603   1.000
    C102    C    0.43581   0.48417   0.12250   1.000
    C103    C    0.93582   0.48417   0.12250   1.000
    C104    C    0.37558   0.48546   0.12002   1.000
    C105    C    0.87559   0.48546   0.12002   1.000
    C106    C    0.37523   0.37650   0.93165   1.000
    C107    C    0.87524   0.37650   0.93165   1.000
    C108    C    0.43551   0.37287   0.93087   1.000
    C109    C    0.93552   0.37287   0.93087   1.000
    C110    C    0.46780   0.44405   0.90394   1.000
    C111    C    0.96781   0.44405   0.90394   1.000
    C112    C    0.43565   0.51576   0.87744   1.000
    C113    C    0.93565   0.51576   0.87740   1.000
    C114    C    0.37542   0.51445   0.87991   1.000
    C115    C    0.87543   0.51445   0.87991   1.000
    C116    C    0.12495   0.87647   0.56820   1.000
    C117    C    0.62496   0.87647   0.56829   1.000
    C118    C    0.06468   0.87282   0.56908   1.000
    C119    C    0.56469   0.87282   0.56908   1.000
    C120    C    0.03222   0.94397   0.59600   1.000
    C121    C    0.53223   0.94397   0.59600   1.000
    C122    C    0.06420   0.01572   0.62248   1.000
    C123    C    0.56421   0.01572   0.62248   1.000
    C124    C    0.12443   0.01444   0.61990   1.000
    C125    C    0.62444   0.01444   0.61999   1.000
    C126    C    0.12478   0.12354   0.43170   1.000
    C127    C    0.62479   0.12353   0.43170   1.000
    C128    C    0.06450   0.12717   0.43091   1.000
    C129    C    0.56451   0.12717   0.43091   1.000
    C130    C    0.03221   0.05602   0.40396   1.000
    C131    C    0.53222   0.05602   0.40396   1.000
    C132    C    0.06437   0.98430   0.37746   1.000
    C133    C    0.56438   0.98430   0.37746   1.000
    C134    C    0.12459   0.98561   0.37994   1.000
    C135    C    0.62460   0.98560   0.37994   1.000
    C136    C    0.12495   0.37653   0.93163   1.000
    C137    C    0.62496   0.37653   0.93163   1.000
    C138    C    0.06468   0.37289   0.93085   1.000
    C139    C    0.56469   0.37289   0.93085   1.000
    C140    C    0.03222   0.44406   0.90394   1.000
    C141    C    0.53223   0.44406   0.90394   1.000
    C142    C    0.06420   0.51580   0.87740   1.000
    C143    C    0.56421   0.51580   0.87740   1.000
    C144    C    0.12443   0.51451   0.87995   1.000
    C145    C    0.62444   0.51451   0.87995   1.000
    C146    C    0.12478   0.62347   0.06832   1.000
    C147    C    0.62479   0.62347   0.06832   1.000
    C148    C    0.06450   0.62710   0.06910   1.000
    C149    C    0.56451   0.62710   0.06910   1.000
    C150    C    0.03221   0.55593   0.09603   1.000
    C151    C    0.53222   0.55593   0.09603   1.000
    C152    C    0.06436   0.48421   0.12253   1.000
    C153    C    0.56437   0.48421   0.12253   1.000
    C154    C    0.12459   0.48553   0.12006   1.000
    C155    C    0.62460   0.48552   0.12006   1.000
    C156    C    0.37506   0.12350   0.43168   1.000
    C157    C    0.87507   0.12350   0.43168   1.000
    C158    C    0.43533   0.12715   0.43089   1.000
    C159    C    0.93534   0.12715   0.43089   1.000
    C160    C    0.46779   0.05600   0.40397   1.000
    C161    C    0.96780   0.05600   0.40397   1.000
    C162    C    0.43581   0.98425   0.37749   1.000
    C163    C    0.93582   0.98425   0.37749   1.000
    C164    C    0.37558   0.98554   0.37998   1.000
    C165    C    0.87559   0.98554   0.37998   1.000
    C166    C    0.37523   0.87644   0.56827   1.000
    C167    C    0.87524   0.87644   0.56827   1.000
    C168    C    0.43551   0.87281   0.56906   1.000
    C169    C    0.93552   0.87281   0.56906   1.000
    C170    C    0.46780   0.94396   0.59600   1.000
    C171    C    0.96781   0.94396   0.59600   1.000
    C172    C    0.43564   0.01568   0.62251   1.000
    C173    C    0.93565   0.01568   0.62251   1.000
    C174    C    0.37542   0.01437   0.62003   1.000
    C175    C    0.87543   0.01437   0.62003   1.000
    C176    C    0.24998   0.83581   0.80707   1.000
    C177    C    0.75002   0.83581   0.80707   1.000
    C178    C    0.25000   0.90717   0.85521   1.000
    C179    C    0.75002   0.90717   0.85521   1.000
    C180    C    0.24999   0.89456   0.93210   1.000
    C181    C    0.75001   0.89456   0.93210   1.000
    C182    C    0.24997   0.80847   0.96003   1.000
    C183    C    0.74999   0.80847   0.96003   1.000
    C184    C    0.24997   0.73686   0.91182   1.000
    C185    C    0.74998   0.73686   0.91182   1.000
    C186    C    0.24998   0.75051   0.83543   1.000
    C187    C    0.74999   0.75051   0.83543   1.000
    C188    C    0.25000   0.85124   0.72485   1.000
    C189    C    0.75002   0.85124   0.72485   1.000
    C190    C    0.24995   0.64580   0.94315   1.000
    C191    C    0.74996   0.64580   0.94315   1.000
    C192    C    0.24999   0.96785   0.98000   1.000
    C193    C    0.75002   0.96785   0.98000   1.000
    C194    C    0.25001   0.16416   0.19200   1.000
    C195    C    0.75002   0.16416   0.19200   1.000
    C196    C    0.25000   0.09280   0.14476   1.000
    C197    C    0.75001   0.09280   0.14476   1.000
    C198    C    0.25001   0.10541   0.06785   1.000
    C199    C    0.75002   0.10541   0.06785   1.000
    C200    C    0.25003   0.19150   0.03994   1.000
    C201    C    0.75004   0.19150   0.03994   1.000
    C202    C    0.25004   0.26311   0.08815   1.000
    C203    C    0.75005   0.26311   0.08815   1.000
    C204    C    0.25004   0.24947   0.16454   1.000
    C205    C    0.75004   0.24947   0.16454   1.000
    C206    C    0.25000   0.14873   0.27511   1.000
    C207    C    0.75001   0.14873   0.27511   1.000
    C208    C    0.25005   0.35418   0.05682   1.000
    C209    C    0.75007   0.35418   0.05682   1.000
    C210    C    0.25000   0.03213   0.01995   1.000
    C211    C    0.75002   0.03213   0.01995   1.000
    C212    C    0.25001   0.66422   0.30700   1.000
    C213    C    0.75002   0.66422   0.30700   1.000
    C214    C    0.25000   0.59285   0.35521   1.000
    C215    C    0.75001   0.59285   0.35521   1.000
    C216    C    0.25001   0.60543   0.43211   1.000
    C217    C    0.75002   0.60543   0.43211   1.000
    C218    C    0.25003   0.69150   0.46001   1.000
    C219    C    0.75004   0.69150   0.46001   1.000
    C220    C    0.25004   0.76313   0.41170   1.000
    C221    C    0.75005   0.76313   0.41170   1.000
    C222    C    0.25003   0.74952   0.33539   1.000
    C223    C    0.75004   0.74952   0.33539   1.000
    C224    C    0.25001   0.64879   0.22484   1.000
    C225    C    0.75002   0.64879   0.22484   1.000
    C226    C    0.25006   0.85418   0.44312   1.000
    C227    C    0.75007   0.85418   0.44312   1.000
    C228    C    0.25000   0.53212   0.48002   1.000
    C229    C    0.75002   0.53212   0.48002   1.000
    C230    C    0.25000   0.33575   0.69291   1.000
    C231    C    0.75001   0.33575   0.69291   1.000
    C232    C    0.25001   0.40713   0.64470   1.000
    C233    C    0.75002   0.40713   0.64470   1.000
    C234    C    0.25000   0.39455   0.56786   1.000
    C235    C    0.75001   0.39455   0.56786   1.000
    C236    C    0.24998   0.30847   0.53996   1.000
    C237    C    0.74999   0.30847   0.53996   1.000
    C238    C    0.24997   0.23684   0.58818   1.000
    C239    C    0.74998   0.23684   0.58818   1.000
    C240    C    0.24998   0.25045   0.66450   1.000
    C241    C    0.74999   0.25045   0.66450   1.000
    C242    C    0.25000   0.35119   0.77513   1.000
    C243    C    0.75001   0.35119   0.77513   1.000
    C244    C    0.24995   0.14580   0.55685   1.000
    C245    C    0.74996   0.14580   0.55685   1.000
    C246    C    0.25000   0.46785   0.51995   1.000
    C247    C    0.75001   0.46785   0.51995   1.000
    C248    C    0.34518   0.55336   0.09246   1.000
    C249    C    0.84519   0.55336   0.09246   1.000
    C250    C    0.34518   0.44655   0.90750   1.000
    C251    C    0.84519   0.44655   0.90750   1.000
    C252    C    0.15483   0.94653   0.59241   1.000
    C253    C    0.65484   0.94653   0.59241   1.000
    C254    C    0.15482   0.05350   0.40755   1.000
    C255    C    0.65483   0.05350   0.40755   1.000
    C256    C    0.15483   0.44661   0.90751   1.000
    C257    C    0.65484   0.44661   0.90751   1.000
    C258    C    0.15483   0.55342   0.09247   1.000
    C259    C    0.65484   0.55342   0.09247   1.000
    C260    C    0.34518   0.05344   0.40756   1.000
    C261    C    0.84519   0.05344   0.40756   1.000
    C262    C    0.34518   0.94647   0.59242   1.000
    C263    C    0.84519   0.94647   0.59242   1.000
    C264    C    0.24996   0.63988   0.01302   1.000
    C265    C    0.74997   0.63988   0.01302   1.000
    C266    C    0.24994   0.58236   0.89767   1.000
    C267    C    0.74994   0.58236   0.89767   1.000
    C268    C    0.25001   0.93343   0.70593   1.000
    C269    C    0.75001   0.93343   0.70593   1.000
    C270    C    0.25001   0.78838   0.68103   1.000
    C271    C    0.75001   0.78838   0.68103   1.000
    C272    C    0.25005   0.36009   0.98695   1.000
    C273    C    0.75006   0.36009   0.98695   1.000
    C274    C    0.25008   0.41762   0.10230   1.000
    C275    C    0.75008   0.41762   0.10230   1.000
    C276    C    0.25000   0.06654   0.29404   1.000
    C277    C    0.75001   0.06654   0.29404   1.000
    C278    C    0.25001   0.21159   0.31894   1.000
    C279    C    0.75002   0.21159   0.31894   1.000
    C280    C    0.25005   0.86005   0.51297   1.000
    C281    C    0.75006   0.86005   0.51297   1.000
    C282    C    0.25007   0.91765   0.39764   1.000
    C283    C    0.75008   0.91765   0.39764   1.000
    C284    C    0.25000   0.56659   0.20595   1.000
    C285    C    0.75001   0.56659   0.20595   1.000
    C286    C    0.25001   0.71166   0.18099   1.000
    C287    C    0.75002   0.71166   0.18099   1.000
    C288    C    0.24996   0.13992   0.48700   1.000
    C289    C    0.74997   0.13992   0.48700   1.000
    C290    C    0.24994   0.08233   0.60233   1.000
    C291    C    0.74995   0.08233   0.60233   1.000
    C292    C    0.25001   0.43338   0.79400   1.000
    C293    C    0.75002   0.43338   0.79401   1.000
    C294    C    0.25000   0.28832   0.81898   1.000
    C295    C    0.75001   0.28832   0.81898   1.000
    O296    O    0.74999   0.59590   0.05506   1.000
    O297    O    0.74997   0.64284   0.97809   1.000
    O298    O    0.24999   0.59590   0.05506   1.000
    O299    O    0.24996   0.64284   0.97809   1.000
    O300    O    0.24997   0.80270   0.98965   1.000
    O301    O    0.74998   0.80270   0.98965   1.000
    O302    O    0.75002   0.06877   0.04390   1.000
    O303    O    0.75002   0.99999   0.99998   1.000
    O304    O    0.25001   0.06877   0.04390   1.000
    O305    O    0.25000   0.99999   0.99998   1.000
    O306    O    0.25002   0.14846   0.05390   1.000
    O307    O    0.25003   0.22731   0.06405   1.000
    O308    O    0.25004   0.19727   0.01032   1.000
    O309    O    0.75003   0.14846   0.05390   1.000
    O310    O    0.75005   0.22731   0.06405   1.000
    O311    O    0.75005   0.19727   0.01032   1.000
    O312    O    0.13779   0.65061   0.05801   1.000
    O313    O    0.63780   0.65061   0.05801   1.000
    O314    O    0.86200   0.65058   0.05805   1.000
    O315    O    0.36199   0.65058   0.05805   1.000
    O316    O    0.05399   0.65653   0.05866   1.000
    O317    O    0.55400   0.65653   0.05866   1.000
    O318    O    0.94578   0.65653   0.05869   1.000
    O319    O    0.44577   0.65653   0.05869   1.000
    O320    O    0.75006   0.30865   0.07249   1.000
    O321    O    0.75007   0.38590   0.07956   1.000
    O322    O    0.75006   0.35714   0.02189   1.000
    O323    O    0.25005   0.30865   0.07249   1.000
    O324    O    0.25006   0.38590   0.07956   1.000
    O325    O    0.25005   0.35714   0.02189   1.000
    O326    O    0.75002   0.09911   0.10631   1.000
    O327    O    0.25001   0.09911   0.10631   1.000
    O328    O    0.09464   0.62529   0.06871   1.000
    O329    O    0.13980   0.58845   0.08040   1.000
    O330    O    0.59465   0.62529   0.06871   1.000
    O331    O    0.63981   0.58845   0.08040   1.000
    O332    O    0.40520   0.62526   0.06873   1.000
    O333    O    0.36012   0.58840   0.08040   1.000
    O334    O    0.90520   0.62526   0.06873   1.000
    O335    O    0.86013   0.58840   0.08040   1.000
    O336    O    0.04835   0.59151   0.08257   1.000
    O337    O    0.54836   0.59151   0.08257   1.000
    O338    O    0.95157   0.59150   0.08258   1.000
    O339    O    0.45156   0.59150   0.08258   1.000
    O340    O    0.25004   0.25629   0.12635   1.000
    O341    O    0.75004   0.25629   0.12635   1.000
    O342    O    0.29759   0.55264   0.09478   1.000
    O343    O    0.36038   0.51941   0.10624   1.000
    O344    O    0.79760   0.55264   0.09478   1.000
    O345    O    0.86039   0.51941   0.10624   1.000
    O346    O    0.20242   0.55267   0.09478   1.000
    O347    O    0.13971   0.51947   0.10627   1.000
    O348    O    0.70243   0.55267   0.09478   1.000
    O349    O    0.63972   0.51947   0.10627   1.000
    O350    O    0.00001   0.55592   0.09603   1.000
    O351    O    0.04829   0.52007   0.10928   1.000
    O352    O    0.95181   0.52004   0.10927   1.000
    O353    O    0.50001   0.55592   0.09603   1.000
    O354    O    0.45180   0.52004   0.10927   1.000
    O355    O    0.54830   0.52007   0.10928   1.000
    O356    O    0.75005   0.48477   0.09970   1.000
    O357    O    0.75001   0.55926   0.15152   1.000
    O358    O    0.25004   0.48477   0.09970   1.000
    O359    O    0.25000   0.55926   0.15152   1.000
    O360    O    0.40569   0.48481   0.12126   1.000
    O361    O    0.36272   0.45805   0.13015   1.000
    O362    O    0.90570   0.48481   0.12126   1.000
    O363    O    0.86273   0.45805   0.13015   1.000
    O364    O    0.59449   0.48487   0.12130   1.000
    O365    O    0.63753   0.45813   0.13020   1.000
    O366    O    0.09448   0.48487   0.12130   1.000
    O367    O    0.13752   0.45813   0.13020   1.000
    O368    O    0.94644   0.45530   0.13383   1.000
    O369    O    0.44643   0.45530   0.13383   1.000
    O370    O    0.05382   0.45535   0.13387   1.000
    O371    O    0.55383   0.45535   0.13387   1.000
    O372    O    0.24999   0.05982   0.15616   1.000
    O373    O    0.25000   0.12848   0.16838   1.000
    O374    O    0.75000   0.05982   0.15616   1.000
    O375    O    0.75002   0.12848   0.16838   1.000
    O376    O    0.75003   0.20681   0.17827   1.000
    O377    O    0.75004   0.27716   0.18342   1.000
    O378    O    0.25002   0.20681   0.17827   1.000
    O379    O    0.25004   0.27716   0.18342   1.000
    O380    O    0.25001   0.68022   0.20292   1.000
    O381    O    0.75002   0.68022   0.20292   1.000
    O382    O    0.75002   0.15645   0.23356   1.000
    O383    O    0.25001   0.15645   0.23356   1.000
    O384    O    0.25000   0.60769   0.21540   1.000
    O385    O    0.75001   0.60769   0.21540   1.000
    O386    O    0.75002   0.65651   0.26592   1.000
    O387    O    0.25001   0.65651   0.26592   1.000
    O388    O    0.25000   0.10764   0.28458   1.000
    O389    O    0.25000   0.18016   0.29703   1.000
    O390    O    0.75001   0.10764   0.28458   1.000
    O391    O    0.75001   0.18016   0.29703   1.000
    O392    O    0.25000   0.05925   0.34847   1.000
    O393    O    0.75001   0.05925   0.34847   1.000
    O394    O    0.75004   0.77723   0.31649   1.000
    O395    O    0.25003   0.77723   0.31649   1.000
    O396    O    0.25002   0.70687   0.32120   1.000
    O397    O    0.25001   0.62854   0.33111   1.000
    O398    O    0.75003   0.70687   0.32120   1.000
    O399    O    0.75002   0.62854   0.33111   1.000
    O400    O    0.24999   0.55988   0.34382   1.000
    O401    O    0.75000   0.55988   0.34382   1.000
    O402    O    0.25003   0.75633   0.37355   1.000
    O403    O    0.75004   0.75633   0.37355   1.000
    O404    O    0.55383   0.95544   0.36612   1.000
    O405    O    0.05382   0.95544   0.36612   1.000
    O406    O    0.94643   0.95540   0.36616   1.000
    O407    O    0.44642   0.95540   0.36616   1.000
    O408    O    0.25000   0.59914   0.39366   1.000
    O409    O    0.75002   0.59914   0.39366   1.000
    O410    O    0.13752   0.95822   0.36977   1.000
    O411    O    0.63753   0.95822   0.36981   1.000
    O412    O    0.36271   0.95814   0.36986   1.000
    O413    O    0.86272   0.95814   0.36986   1.000
    O414    O    0.09448   0.98495   0.37870   1.000
    O415    O    0.04829   0.02016   0.39071   1.000
    O416    O    0.59449   0.98495   0.37870   1.000
    O417    O    0.54830   0.02016   0.39071   1.000
    O418    O    0.40569   0.98490   0.37874   1.000
    O419    O    0.45180   0.02013   0.39073   1.000
    O420    O    0.90570   0.98489   0.37874   1.000
    O421    O    0.95181   0.02013   0.39073   1.000
    O422    O    0.13971   0.01955   0.39375   1.000
    O423    O    0.63972   0.01955   0.39375   1.000
    O424    O    0.86039   0.01949   0.39377   1.000
    O425    O    0.36038   0.01949   0.39377   1.000
    O426    O    0.75005   0.98481   0.40027   1.000
    O427    O    0.75007   0.88591   0.42038   1.000
    O428    O    0.25004   0.98481   0.40027   1.000
    O429    O    0.25006   0.88591   0.42038   1.000
    O430    O    0.20241   0.05273   0.40523   1.000
    O431    O    0.29759   0.05270   0.40523   1.000
    O432    O    0.24998   0.09594   0.44495   1.000
    O433    O    0.70242   0.05273   0.40523   1.000
    O434    O    0.79760   0.05270   0.40523   1.000
    O435    O    0.74999   0.09594   0.44495   1.000
    O436    O    0.50000   0.05601   0.40397   1.000
    O437    O    0.54836   0.09159   0.41744   1.000
    O438    O    0.00000   0.05601   0.40397   1.000
    O439    O    0.04835   0.09159   0.41744   1.000
    O440    O    0.95157   0.09158   0.41743   1.000
    O441    O    0.45156   0.09158   0.41743   1.000
    O442    O    0.63981   0.08852   0.41963   1.000
    O443    O    0.13980   0.08852   0.41963   1.000
    O444    O    0.36012   0.08847   0.41962   1.000
    O445    O    0.86013   0.08847   0.41962   1.000
    O446    O    0.25005   0.80866   0.42741   1.000
    O447    O    0.25003   0.72732   0.43586   1.000
    O448    O    0.75006   0.80866   0.42741   1.000
    O449    O    0.75004   0.72732   0.43586   1.000
    O450    O    0.90520   0.12533   0.43129   1.000
    O451    O    0.94578   0.15659   0.44132   1.000
    O452    O    0.40519   0.12533   0.43129   1.000
    O453    O    0.44577   0.15659   0.44132   1.000
    O454    O    0.59465   0.12535   0.43131   1.000
    O455    O    0.55399   0.15659   0.44096   1.000
    O456    O    0.09464   0.12535   0.43131   1.000
    O457    O    0.05398   0.15659   0.44096   1.000
    O458    O    0.86200   0.15063   0.44199   1.000
    O459    O    0.36199   0.15063   0.44199   1.000
    O460    O    0.13778   0.15066   0.44202   1.000
    O461    O    0.63779   0.15066   0.44202   1.000
    O462    O    0.25002   0.64847   0.44606   1.000
    O463    O    0.25001   0.56877   0.45607   1.000
    O464    O    0.75003   0.64847   0.44606   1.000
    O465    O    0.75002   0.56877   0.45607   1.000
    O466    O    0.75006   0.85711   0.47805   1.000
    O467    O    0.25005   0.85711   0.47805   1.000
    O468    O    0.75005   0.69726   0.48962   1.000
    O469    O    0.25004   0.69726   0.48962   1.000
    O470    O    0.25000   0.49999   0.49999   1.000
    O471    O    0.75001   0.49999   0.49999   1.000
    O472    O    0.24997   0.30272   0.51036   1.000
    O473    O    0.74998   0.30272   0.51036   1.000
    O474    O    0.24996   0.14286   0.52193   1.000
    O475    O    0.74997   0.14286   0.52193   1.000
    O476    O    0.75004   0.90403   0.55501   1.000
    O477    O    0.25003   0.90403   0.55501   1.000
    O478    O    0.75001   0.43120   0.54391   1.000
    O479    O    0.25000   0.43120   0.54391   1.000
    O480    O    0.75000   0.35151   0.55391   1.000
    O481    O    0.74998   0.27266   0.56407   1.000
    O482    O    0.24999   0.35151   0.55391   1.000
    O483    O    0.24997   0.27266   0.56407   1.000
    O484    O    0.36222   0.84931   0.55795   1.000
    O485    O    0.86223   0.84931   0.55795   1.000
    O486    O    0.13802   0.84934   0.55794   1.000
    O487    O    0.63803   0.84934   0.55799   1.000
    O488    O    0.44602   0.84339   0.55862   1.000
    O489    O    0.94603   0.84339   0.55862   1.000
    O490    O    0.55425   0.84339   0.55865   1.000
    O491    O    0.05424   0.84339   0.55865   1.000
    O492    O    0.74997   0.19132   0.57252   1.000
    O493    O    0.74995   0.11406   0.57959   1.000
    O494    O    0.24996   0.19132   0.57252   1.000
    O495    O    0.24994   0.11406   0.57959   1.000
    O496    O    0.75001   0.40084   0.60628   1.000
    O497    O    0.25000   0.40084   0.60628   1.000
    O498    O    0.09481   0.87465   0.56864   1.000
    O499    O    0.13989   0.91150   0.58031   1.000
    O500    O    0.40537   0.87462   0.56867   1.000
    O501    O    0.36021   0.91146   0.58035   1.000
    O502    O    0.90538   0.87462   0.56867   1.000
    O503    O    0.86022   0.91146   0.58035   1.000
    O504    O    0.59482   0.87465   0.56869   1.000
    O505    O    0.63990   0.91150   0.58035   1.000
    O506    O    0.45166   0.90838   0.58253   1.000
    O507    O    0.95167   0.90838   0.58253   1.000
    O508    O    0.04845   0.90840   0.58254   1.000
    O509    O    0.54846   0.90840   0.58254   1.000
    O510    O    0.24998   0.24365   0.62634   1.000
    O511    O    0.74998   0.24365   0.62634   1.000
    O512    O    0.70243   0.94727   0.59473   1.000
    O513    O    0.63964   0.98048   0.60620   1.000
    O514    O    0.20242   0.94727   0.59473   1.000
    O515    O    0.13963   0.98048   0.60616   1.000
    O516    O    0.29759   0.94724   0.59474   1.000
    O517    O    0.36030   0.98042   0.60623   1.000
    O518    O    0.79760   0.94724   0.59474   1.000
    O519    O    0.86031   0.98042   0.60623   1.000
    O520    O    0.00001   0.94397   0.59600   1.000
    O521    O    0.04821   0.97985   0.60924   1.000
    O522    O    0.95173   0.97982   0.60926   1.000
    O523    O    0.50001   0.94397   0.59600   1.000
    O524    O    0.45172   0.97982   0.60926   1.000
    O525    O    0.54822   0.97985   0.60924   1.000
    O526    O    0.74998   0.01517   0.59969   1.000
    O527    O    0.75001   0.94072   0.65149   1.000
    O528    O    0.24997   0.01517   0.59969   1.000
    O529    O    0.25001   0.94072   0.65149   1.000
    O530    O    0.09432   0.01508   0.62119   1.000
    O531    O    0.13730   0.04183   0.63007   1.000
    O532    O    0.59433   0.01508   0.62124   1.000
    O533    O    0.63731   0.04183   0.63012   1.000
    O534    O    0.90554   0.01502   0.62127   1.000
    O535    O    0.86250   0.04175   0.63017   1.000
    O536    O    0.40553   0.01502   0.62127   1.000
    O537    O    0.36249   0.04176   0.63017   1.000
    O538    O    0.05359   0.04458   0.63381   1.000
    O539    O    0.55360   0.04458   0.63381   1.000
    O540    O    0.94620   0.04453   0.63385   1.000
    O541    O    0.44619   0.04453   0.63385   1.000
    O542    O    0.75002   0.44010   0.65613   1.000
    O543    O    0.75001   0.37144   0.66881   1.000
    O544    O    0.25001   0.44010   0.65613   1.000
    O545    O    0.25000   0.37144   0.66881   1.000
    O546    O    0.24999   0.29310   0.67871   1.000
    O547    O    0.24998   0.22275   0.68344   1.000
    O548    O    0.75000   0.29310   0.67871   1.000
    O549    O    0.74998   0.22275   0.68344   1.000
    O550    O    0.75001   0.81981   0.70294   1.000
    O551    O    0.25000   0.81981   0.70294   1.000
    O552    O    0.75001   0.34347   0.73402   1.000
    O553    O    0.25000   0.34347   0.73402   1.000
    O554    O    0.25001   0.89234   0.71539   1.000
    O555    O    0.75002   0.89234   0.71539   1.000
    O556    O    0.24999   0.84353   0.76596   1.000
    O557    O    0.75002   0.84353   0.76596   1.000
    O558    O    0.75002   0.39228   0.78457   1.000
    O559    O    0.75001   0.31975   0.79706   1.000
    O560    O    0.25000   0.39228   0.78457   1.000
    O561    O    0.25000   0.31975   0.79706   1.000
    O562    O    0.25000   0.44072   0.84840   1.000
    O563    O    0.75001   0.44072   0.84841   1.000
    O564    O    0.74998   0.72281   0.81653   1.000
    O565    O    0.24997   0.72281   0.81653   1.000
    O566    O    0.24998   0.79316   0.82125   1.000
    O567    O    0.24999   0.87149   0.83114   1.000
    O568    O    0.75000   0.79316   0.82125   1.000
    O569    O    0.75002   0.87149   0.83114   1.000
    O570    O    0.75003   0.94015   0.84381   1.000
    O571    O    0.25001   0.94015   0.84381   1.000
    O572    O    0.24997   0.74368   0.87363   1.000
    O573    O    0.74999   0.74368   0.87363   1.000
    O574    O    0.94620   0.54463   0.86609   1.000
    O575    O    0.44619   0.54463   0.86611   1.000
    O576    O    0.05358   0.54467   0.86611   1.000
    O577    O    0.55359   0.54467   0.86611   1.000
    O578    O    0.25000   0.90087   0.89366   1.000
    O579    O    0.75001   0.90087   0.89366   1.000
    O580    O    0.86250   0.54185   0.86977   1.000
    O581    O    0.36249   0.54185   0.86977   1.000
    O582    O    0.63730   0.54192   0.86983   1.000
    O583    O    0.13729   0.54192   0.86983   1.000
    O584    O    0.90554   0.51511   0.87866   1.000
    O585    O    0.95173   0.47990   0.89067   1.000
    O586    O    0.59432   0.51516   0.87868   1.000
    O587    O    0.54822   0.47993   0.89067   1.000
    O588    O    0.09431   0.51516   0.87868   1.000
    O589    O    0.04821   0.47993   0.89067   1.000
    O590    O    0.40553   0.51511   0.87868   1.000
    O591    O    0.45172   0.47991   0.89069   1.000
    O592    O    0.86031   0.48050   0.89371   1.000
    O593    O    0.36030   0.48050   0.89371   1.000
    O594    O    0.13963   0.48056   0.89373   1.000
    O595    O    0.63964   0.48056   0.89373   1.000
    O596    O    0.24997   0.51521   0.90024   1.000
    O597    O    0.24994   0.61408   0.92041   1.000
    O598    O    0.74998   0.51521   0.90024   1.000
    O599    O    0.74995   0.61408   0.92041   1.000
    O600    O    0.29759   0.44730   0.90515   1.000
    O601    O    0.20241   0.44733   0.90516   1.000
    O602    O    0.25002   0.40407   0.94488   1.000
    O603    O    0.79760   0.44730   0.90515   1.000
    O604    O    0.70242   0.44733   0.90516   1.000
    O605    O    0.75003   0.40407   0.94488   1.000
    O606    O    0.50001   0.44406   0.90394   1.000
    O607    O    0.54846   0.40847   0.91740   1.000
    O608    O    0.00001   0.44406   0.90394   1.000
    O609    O    0.04845   0.40847   0.91740   1.000
    O610    O    0.45165   0.40846   0.91741   1.000
    O611    O    0.95166   0.40846   0.91741   1.000
    O612    O    0.86021   0.41153   0.91958   1.000
    O613    O    0.36021   0.41153   0.91958   1.000
    O614    O    0.63990   0.41157   0.91957   1.000
    O615    O    0.13989   0.41157   0.91957   1.000
    O616    O    0.24996   0.69133   0.92749   1.000
    O617    O    0.24997   0.77267   0.93593   1.000
    O618    O    0.74997   0.69133   0.92749   1.000
    O619    O    0.74998   0.77267   0.93593   1.000
    O620    O    0.59482   0.37471   0.93124   1.000
    O621    O    0.55425   0.34344   0.94128   1.000
    O622    O    0.09481   0.37471   0.93124   1.000
    O623    O    0.05424   0.34344   0.94128   1.000
    O624    O    0.40537   0.37469   0.93126   1.000
    O625    O    0.44602   0.34344   0.94132   1.000
    O626    O    0.90538   0.37469   0.93126   1.000
    O627    O    0.94603   0.34344   0.94132   1.000
    O628    O    0.13802   0.34939   0.94193   1.000
    O629    O    0.63803   0.34939   0.94193   1.000
    O630    O    0.86223   0.34936   0.94196   1.000
    O631    O    0.36222   0.34936   0.94196   1.000
    O632    O    0.75000   0.85152   0.94607   1.000
    O633    O    0.75001   0.93121   0.95605   1.000
    O634    O    0.24998   0.85152   0.94607   1.000
    O635    O    0.24999   0.93121   0.95605   1.000
loop_
    _geom_bond_atom_site_label_1
    _geom_bond_atom_site_label_2
    _geom_bond_distance
    _geom_bond_site_symmetry_2
    _ccdc_geom_bond_type
    C265   O296      1.01646      .   S
    C1     O296      1.01646      .   S
    C265   O297      0.63615  1_554   S
    C191   O297      0.63615      .   S
    C264   O298      1.01646      .   S
    C0     O298      1.01646      .   S
    C264   O299      0.63615  1_554   S
    C190   O299      0.63615      .   S
    C74    O300      0.54506  1_554   S
    C182   O300      0.54506      .   S
    C75    O301      0.54506  1_554   S
    C183   O301      0.54506      .   S
    C211   O302      0.70864      .   S
    C199   O302      0.70864      .   S
    C211   O303      0.61019  1_544   S
    C193   O303      0.61019      .   S
    C210   O304      0.70864      .   S
    C198   O304      0.70864      .   S
    C210   O305      0.61019  1_544   S
    C192   O305      0.61019      .   S
    C200   O306      0.70410      .   S
    C198   O306      0.70410      .   S
    C200   O307      0.70033      .   S
    C202   O307      0.70033      .   S
    C200   O308      0.54515      .   S
    C80    O308      0.54515  1_556   S
    C201   O309      0.70410      .   S
    C199   O309      0.70410      .   S
    C201   O310      0.70033      .   S
    C203   O310      0.70033      .   S
    C201   O311      0.54515      .   S
    C81    O311      0.54515  1_556   S
    C48    O312      0.54482      .   S
    C146   O312      0.54482      .   S
    C49    O313      0.54481      .   S
    C147   O313      0.54481      .   S
    C9     O314      0.54481      .   S
    C97    O314      0.54481      .   S
    C8     O315      0.54481      .   S
    C96    O315      0.54481      .   S
    C50    O316      0.54404      .   S
    C148   O316      0.54404      .   S
    C51    O317      0.54404      .   S
    C149   O317      0.54404      .   S
    C11    O318      0.54402      .   S
    C99    O318      0.54402      .   S
    C10    O319      0.54402      .   S
    C98    O319      0.54402      .   S
    C209   O320      0.75082      .   S
    C203   O320      0.75082      .   S
    C209   O321      0.63647      .   S
    C275   O321      0.63647      .   S
    C209   O322      0.63615      .   S
    C273   O322      0.63615  1_556   S
    C208   O323      0.75082      .   S
    C202   O323      0.75082      .   S
    C208   O324      0.63647      .   S
    C274   O324      0.63647      .   S
    C208   O325      0.63615      .   S
    C272   O325      0.63615  1_556   S
    C199   O326      0.70506      .   S
    C197   O326      0.70506      .   S
    C198   O327      0.70506      .   S
    C196   O327      0.70506      .   S
    C146   O328      0.69488      .   S
    C148   O328      0.69488      .   S
    C146   O329      0.67302      .   S
    C258   O329      0.67302      .   S
    C147   O330      0.69488      .   S
    C149   O330      0.69488      .   S
    C147   O331      0.67302      .   S
    C259   O331      0.67302      .   S
    C96    O332      0.69486      .   S
    C98    O332      0.69486      .   S
    C96    O333      0.67303      .   S
    C248   O333      0.67303      .   S
    C97    O334      0.69486      .   S
    C99    O334      0.69486      .   S
    C97    O335      0.67302      .   S
    C249   O335      0.67302      .   S
    C148   O336      0.70269      .   S
    C150   O336      0.70269      .   S
    C149   O337      0.70268      .   S
    C151   O337      0.70268      .   S
    C99    O338      0.70269      .   S
    C101   O338      0.70269      .   S
    C98    O339      0.70269      .   S
    C100   O339      0.70269      .   S
    C202   O340      0.70151      .   S
    C204   O340      0.70151      .   S
    C203   O341      0.70151      .   S
    C205   O341      0.70151      .   S
    C248   O342      1.09715      .   S
    C0     O342      1.09715      .   S
    C248   O343      0.67308      .   S
    C104   O343      0.67308      .   S
    C249   O344      1.09715      .   S
    C1     O344      1.09715      .   S
    C249   O345      0.67310      .   S
    C105   O345      0.67310      .   S
    C258   O346      1.09717      .   S
    C0     O346      1.09717      .   S
    C258   O347      0.67308      .   S
    C154   O347      0.67308      .   S
    C259   O348      1.09717      .   S
    C1     O348      1.09717      .   S
    C259   O349      0.67310      .   S
    C155   O349      0.67310      .   S
    C150   O350      0.74187      .   S
    C101   O350      0.74187  1_655   S
    C150   O351      0.70271      .   S
    C152   O351      0.70271      .   S
    C101   O352      0.70273      .   S
    C103   O352      0.70273      .   S
    C100   O353      0.74210      .   S
    C151   O353      0.74210      .   S
    C100   O354      0.70272      .   S
    C102   O354      0.70272      .   S
    C151   O355      0.70271      .   S
    C153   O355      0.70271      .   S
    C1     O356      1.02593      .   S
    C275   O356      1.02593      .   S
    C1     O357      0.99502      .   S
    C285   O357      0.99502      .   S
    C0     O358      1.02593      .   S
    C274   O358      1.02593      .   S
    C0     O359      0.99502      .   S
    C284   O359      0.99502      .   S
    C104   O360      0.69419      .   S
    C102   O360      0.69419      .   S
    C104   O361      0.54493      .   S
    C14    O361      0.54493      .   S
    C105   O362      0.69418      .   S
    C103   O362      0.69418      .   S
    C105   O363      0.54492      .   S
    C15    O363      0.54492      .   S
    C155   O364      0.69417      .   S
    C153   O364      0.69417      .   S
    C155   O365      0.54493      .   S
    C55    O365      0.54493      .   S
    C154   O366      0.69418      .   S
    C152   O366      0.69418      .   S
    C154   O367      0.54493      .   S
    C54    O367      0.54493      .   S
    C103   O368      0.54388      .   S
    C13    O368      0.54388      .   S
    C102   O369      0.54387      .   S
    C12    O369      0.54387      .   S
    C152   O370      0.54387      .   S
    C52    O370      0.54387      .   S
    C153   O371      0.54388      .   S
    C53    O371      0.54388      .   S
    C196   O372      0.54419      .   S
    C78    O372      0.54419      .   S
    C196   O373      0.69336      .   S
    C194   O373      0.69336      .   S
    C197   O374      0.54419      .   S
    C79    O374      0.54419      .   S
    C197   O375      0.69336      .   S
    C195   O375      0.69336      .   S
    C205   O376      0.69703      .   S
    C195   O376      0.69703      .   S
    C205   O377      0.54440      .   S
    C83    O377      0.54440      .   S
    C204   O378      0.69703      .   S
    C194   O378      0.69703      .   S
    C204   O379      0.54440      .   S
    C82    O379      0.54440      .   S
    C286   O380      0.62342      .   S
    C224   O380      0.62342      .   S
    C287   O381      0.62342      .   S
    C225   O381      0.62342      .   S
    C195   O382      0.76390      .   S
    C207   O382      0.76390      .   S
    C194   O383      0.76390      .   S
    C206   O383      0.76390      .   S
    C284   O384      0.65032      .   S
    C224   O384      0.65032      .   S
    C285   O385      0.65032      .   S
    C225   O385      0.65032      .   S
    C225   O386      0.75545      .   S
    C213   O386      0.75545      .   S
    C224   O387      0.75545      .   S
    C212   O387      0.75545      .   S
    C206   O388      0.65028      .   S
    C276   O388      0.65028      .   S
    C206   O389      0.62345      .   S
    C278   O389      0.62345      .   S
    C207   O390      0.65028      .   S
    C277   O390      0.65028      .   S
    C207   O391      0.62345      .   S
    C279   O391      0.62345      .   S
    C276   O392      0.99487      .   S
    C6     O392      0.99487      .   S
    C277   O393      0.99487      .   S
    C7     O393      0.99487      .   S
    C89    O394      0.54457      .   S
    C223   O394      0.54457      .   S
    C88    O395      0.54457      .   S
    C222   O395      0.54457      .   S
    C212   O396      0.70018      .   S
    C222   O396      0.70018      .   S
    C212   O397      0.69872      .   S
    C214   O397      0.69872      .   S
    C213   O398      0.70018      .   S
    C223   O398      0.70018      .   S
    C213   O399      0.69872      .   S
    C215   O399      0.69872      .   S
    C84    O400      0.54420      .   S
    C214   O400      0.54420      .   S
    C85    O401      0.54420      .   S
    C215   O401      0.54420      .   S
    C222   O402      0.70082      .   S
    C220   O402      0.70082      .   S
    C223   O403      0.70082      .   S
    C221   O403      0.70082      .   S
    C37    O404      0.54388      .   S
    C133   O404      0.54388      .   S
    C36    O405      0.54388      .   S
    C132   O405      0.54388      .   S
    C61    O406      0.54388      .   S
    C163   O406      0.54388      .   S
    C60    O407      0.54387      .   S
    C162   O407      0.54387      .   S
    C214   O408      0.70500      .   S
    C216   O408      0.70500      .   S
    C215   O409      0.70500      .   S
    C217   O409      0.70500      .   S
    C38    O410      0.54511      .   S
    C134   O410      0.54511      .   S
    C39    O411      0.54489      .   S
    C135   O411      0.54489      .   S
    C62    O412      0.54492      .   S
    C164   O412      0.54492      .   S
    C63    O413      0.54492      .   S
    C165   O413      0.54492      .   S
    C132   O414      0.69417      .   S
    C134   O414      0.69417      .   S
    C132   O415      0.70289  1_565   S
    C130   O415      0.70289      .   S
    C133   O416      0.69417      .   S
    C135   O416      0.69417      .   S
    C133   O417      0.70290  1_565   S
    C131   O417      0.70290      .   S
    C162   O418      0.69419      .   S
    C164   O418      0.69419      .   S
    C162   O419      0.70289  1_565   S
    C160   O419      0.70289      .   S
    C163   O420      0.69418      .   S
    C165   O420      0.69418      .   S
    C163   O421      0.70290  1_565   S
    C161   O421      0.70290      .   S
    C134   O422      0.67326  1_565   S
    C254   O422      0.67326      .   S
    C135   O423      0.67327  1_565   S
    C255   O423      0.67327      .   S
    C165   O424      0.67329  1_565   S
    C261   O424      0.67329      .   S
    C164   O425      0.67328  1_565   S
    C260   O425      0.67328      .   S
    C283   O426      1.02609      .   S
    C7     O426      1.02609  1_545   S
    C283   O427      0.63646      .   S
    C227   O427      0.63646      .   S
    C282   O428      1.02609      .   S
    C6     O428      1.02609  1_545   S
    C282   O429      0.63646      .   S
    C226   O429      0.63646      .   S
    C6     O430      1.09719      .   S
    C254   O430      1.09719      .   S
    C6     O431      1.09716      .   S
    C260   O431      1.09716      .   S
    C6     O432      1.01697      .   S
    C288   O432      1.01697      .   S
    C7     O433      1.09718      .   S
    C255   O433      1.09718      .   S
    C7     O434      1.09717      .   S
    C261   O434      1.09717      .   S
    C7     O435      1.01698      .   S
    C289   O435      1.01698      .   S
    C131   O436      0.74211      .   S
    C160   O436      0.74211      .   S
    C131   O437      0.70272      .   S
    C129   O437      0.70272      .   S
    C130   O438      0.74190      .   S
    C161   O438      0.74190  1_655   S
    C130   O439      0.70271      .   S
    C128   O439      0.70271      .   S
    C161   O440      0.70269      .   S
    C159   O440      0.70269      .   S
    C160   O441      0.70270      .   S
    C158   O441      0.70270      .   S
    C255   O442      0.67301      .   S
    C127   O442      0.67301      .   S
    C254   O443      0.67302      .   S
    C126   O443      0.67302      .   S
    C260   O444      0.67303      .   S
    C156   O444      0.67303      .   S
    C261   O445      0.67302      .   S
    C157   O445      0.67302      .   S
    C220   O446      0.75115      .   S
    C226   O446      0.75115      .   S
    C220   O447      0.70081      .   S
    C218   O447      0.70081      .   S
    C221   O448      0.75115      .   S
    C227   O448      0.75115      .   S
    C221   O449      0.70081      .   S
    C219   O449      0.70081      .   S
    C159   O450      0.69486      .   S
    C157   O450      0.69486      .   S
    C159   O451      0.54402      .   S
    C59    O451      0.54402      .   S
    C158   O452      0.69486      .   S
    C156   O452      0.69486      .   S
    C158   O453      0.54402      .   S
    C58    O453      0.54402      .   S
    C129   O454      0.69488      .   S
    C127   O454      0.69488      .   S
    C129   O455      0.54154      .   S
    C35    O455      0.54154      .   S
    C128   O456      0.69488      .   S
    C126   O456      0.69488      .   S
    C128   O457      0.54154      .   S
    C34    O457      0.54154      .   S
    C157   O458      0.54482      .   S
    C57    O458      0.54482      .   S
    C156   O459      0.54481      .   S
    C56    O459      0.54481      .   S
    C126   O460      0.54482      .   S
    C32    O460      0.54482      .   S
    C127   O461      0.54483      .   S
    C33    O461      0.54483      .   S
    C216   O462      0.70410      .   S
    C218   O462      0.70410      .   S
    C216   O463      0.70859      .   S
    C228   O463      0.70859      .   S
    C217   O464      0.70410      .   S
    C219   O464      0.70410      .   S
    C217   O465      0.70859      .   S
    C229   O465      0.70859      .   S
    C227   O466      0.63597      .   S
    C281   O466      0.63597      .   S
    C226   O467      0.63597      .   S
    C280   O467      0.63597      .   S
    C219   O468      0.54489      .   S
    C87    O468      0.54489      .   S
    C218   O469      0.54489      .   S
    C86    O469      0.54489      .   S
    C228   O470      0.60986      .   S
    C246   O470      0.60986      .   S
    C229   O471      0.60986      .   S
    C247   O471      0.60986      .   S
    C92    O472      0.54489      .   S
    C236   O472      0.54489      .   S
    C93    O473      0.54489      .   S
    C237   O473      0.54489      .   S
    C288   O474      0.63597      .   S
    C244   O474      0.63597      .   S
    C289   O475      0.63597      .   S
    C245   O475      0.63597      .   S
    C281   O476      1.01684      .   S
    C5     O476      1.01684      .   S
    C280   O477      1.01684      .   S
    C4     O477      1.01684      .   S
    C247   O478      0.70859      .   S
    C235   O478      0.70859      .   S
    C246   O479      0.70859      .   S
    C234   O479      0.70859      .   S
    C237   O480      0.70410      .   S
    C235   O480      0.70410      .   S
    C237   O481      0.70031      .   S
    C239   O481      0.70031      .   S
    C236   O482      0.70410      .   S
    C234   O482      0.70410      .   S
    C236   O483      0.70031      .   S
    C238   O483      0.70031      .   S
    C64    O484      0.54483      .   S
    C166   O484      0.54483      .   S
    C65    O485      0.54483      .   S
    C167   O485      0.54483      .   S
    C24    O486      0.54453      .   S
    C116   O486      0.54453      .   S
    C25    O487      0.54482      .   S
    C117   O487      0.54482      .   S
    C66    O488      0.54403      .   S
    C168   O488      0.54403      .   S
    C67    O489      0.54404      .   S
    C169   O489      0.54404      .   S
    C27    O490      0.54401      .   S
    C119   O490      0.54401      .   S
    C26    O491      0.54402      .   S
    C118   O491      0.54402      .   S
    C245   O492      0.75083      .   S
    C239   O492      0.75083      .   S
    C245   O493      0.63646      .   S
    C291   O493      0.63646      .   S
    C244   O494      0.75083      .   S
    C238   O494      0.75083      .   S
    C244   O495      0.63646      .   S
    C290   O495      0.63646      .   S
    C235   O496      0.70446      .   S
    C233   O496      0.70446      .   S
    C234   O497      0.70446      .   S
    C232   O497      0.70446      .   S
    C116   O498      0.69487      .   S
    C118   O498      0.69487      .   S
    C116   O499      0.67329      .   S
    C252   O499      0.67329      .   S
    C166   O500      0.69488      .   S
    C168   O500      0.69488      .   S
    C166   O501      0.67302      .   S
    C262   O501      0.67302      .   S
    C167   O502      0.69487      .   S
    C169   O502      0.69487      .   S
    C167   O503      0.67302      .   S
    C263   O503      0.67302      .   S
    C117   O504      0.69486      .   S
    C119   O504      0.69486      .   S
    C117   O505      0.67303      .   S
    C253   O505      0.67303      .   S
    C168   O506      0.70268      .   S
    C170   O506      0.70268      .   S
    C169   O507      0.70268      .   S
    C171   O507      0.70268      .   S
    C118   O508      0.70270      .   S
    C120   O508      0.70270      .   S
    C119   O509      0.70269      .   S
    C121   O509      0.70269      .   S
    C238   O510      0.70091      .   S
    C240   O510      0.70091      .   S
    C239   O511      0.70091      .   S
    C241   O511      0.70091      .   S
    C253   O512      1.09715      .   S
    C5     O512      1.09715      .   S
    C253   O513      0.67329      .   S
    C125   O513      0.67329  1_545   S
    C252   O514      1.09715      .   S
    C4     O514      1.09715      .   S
    C252   O515      0.67299      .   S
    C124   O515      0.67299  1_545   S
    C262   O516      1.09717      .   S
    C4     O516      1.09717      .   S
    C262   O517      0.67327      .   S
    C174   O517      0.67327  1_545   S
    C263   O518      1.09717      .   S
    C5     O518      1.09717      .   S
    C263   O519      0.67327      .   S
    C175   O519      0.67327  1_545   S
    C120   O520      0.74188      .   S
    C171   O520      0.74188  1_655   S
    C120   O521      0.70290      .   S
    C122   O521      0.70290  1_545   S
    C171   O522      0.70292      .   S
    C173   O522      0.70292  1_545   S
    C170   O523      0.74211      .   S
    C121   O523      0.74211      .   S
    C170   O524      0.70292      .   S
    C172   O524      0.70292  1_545   S
    C121   O525      0.70290      .   S
    C123   O525      0.70290  1_545   S
    C5     O526      1.02610  1_565   S
    C291   O526      1.02610      .   S
    C5     O527      0.99505      .   S
    C269   O527      0.99505      .   S
    C4     O528      1.02610  1_565   S
    C290   O528      1.02610      .   S
    C4     O529      0.99505      .   S
    C268   O529      0.99505      .   S
    C124   O530      0.69422      .   S
    C122   O530      0.69422      .   S
    C124   O531      0.54519      .   S
    C30    O531      0.54519      .   S
    C125   O532      0.69418      .   S
    C123   O532      0.69418      .   S
    C125   O533      0.54492      .   S
    C31    O533      0.54492      .   S
    C175   O534      0.69417      .   S
    C173   O534      0.69417      .   S
    C175   O535      0.54490      .   S
    C71    O535      0.54490      .   S
    C174   O536      0.69417      .   S
    C172   O536      0.69417      .   S
    C174   O537      0.54489      .   S
    C70    O537      0.54489      .   S
    C122   O538      0.54387      .   S
    C28    O538      0.54387      .   S
    C123   O539      0.54388      .   S
    C29    O539      0.54388      .   S
    C173   O540      0.54388      .   S
    C69    O540      0.54388      .   S
    C172   O541      0.54389      .   S
    C68    O541      0.54389      .   S
    C233   O542      0.54441      .   S
    C91    O542      0.54441      .   S
    C233   O543      0.69872      .   S
    C231   O543      0.69872      .   S
    C232   O544      0.54441      .   S
    C90    O544      0.54441      .   S
    C232   O545      0.69872      .   S
    C230   O545      0.69872      .   S
    C240   O546      0.70026      .   S
    C230   O546      0.70026      .   S
    C240   O547      0.54503      .   S
    C94    O547      0.54503      .   S
    C241   O548      0.70026      .   S
    C231   O548      0.70026      .   S
    C241   O549      0.54503      .   S
    C95    O549      0.54503      .   S
    C271   O550      0.62340      .   S
    C189   O550      0.62340      .   S
    C270   O551      0.62340      .   S
    C188   O551      0.62340      .   S
    C231   O552      0.75599      .   S
    C243   O552      0.75599      .   S
    C230   O553      0.75599      .   S
    C242   O553      0.75599      .   S
    C268   O554      0.65025      .   S
    C188   O554      0.65025      .   S
    C269   O555      0.65024      .   S
    C189   O555      0.65024      .   S
    C188   O556      0.75592      .   S
    C176   O556      0.75592      .   S
    C189   O557      0.75592      .   S
    C177   O557      0.75592      .   S
    C243   O558      0.65030      .   S
    C293   O558      0.65030      .   S
    C243   O559      0.62342      .   S
    C295   O559      0.62342      .   S
    C242   O560      0.65027      .   S
    C292   O560      0.65027      .   S
    C242   O561      0.62342      .   S
    C294   O561      0.62342      .   S
    C292   O562      0.99448      .   S
    C2     O562      0.99448      .   S
    C293   O563      0.99439      .   S
    C3     O563      0.99439      .   S
    C77    O564      0.54462      .   S
    C187   O564      0.54462      .   S
    C76    O565      0.54462      .   S
    C186   O565      0.54462      .   S
    C176   O566      0.69999      .   S
    C186   O566      0.69999      .   S
    C176   O567      0.69844      .   S
    C178   O567      0.69844      .   S
    C177   O568      0.69999      .   S
    C187   O568      0.69999      .   S
    C177   O569      0.69844      .   S
    C179   O569      0.69844      .   S
    C73    O570      0.54419      .   S
    C179   O570      0.54419      .   S
    C72    O571      0.54419      .   S
    C178   O571      0.54419      .   S
    C186   O572      0.70151      .   S
    C184   O572      0.70151      .   S
    C187   O573      0.70151      .   S
    C185   O573      0.70151      .   S
    C21    O574      0.54375      .   S
    C113   O574      0.54375      .   S
    C20    O575      0.54388      .   S
    C112   O575      0.54388      .   S
    C44    O576      0.54366      .   S
    C142   O576      0.54366      .   S
    C45    O577      0.54366      .   S
    C143   O577      0.54366      .   S
    C178   O578      0.70488      .   S
    C180   O578      0.70488      .   S
    C179   O579      0.70488      .   S
    C181   O579      0.70488      .   S
    C23    O580      0.54492      .   S
    C115   O580      0.54492      .   S
    C22    O581      0.54492      .   S
    C114   O581      0.54492      .   S
    C47    O582      0.54493      .   S
    C145   O582      0.54493      .   S
    C46    O583      0.54493      .   S
    C144   O583      0.54493      .   S
    C113   O584      0.69418      .   S
    C115   O584      0.69418      .   S
    C113   O585      0.70283      .   S
    C111   O585      0.70283      .   S
    C143   O586      0.69421      .   S
    C145   O586      0.69421      .   S
    C143   O587      0.70293      .   S
    C141   O587      0.70293      .   S
    C142   O588      0.69421      .   S
    C144   O588      0.69421      .   S
    C142   O589      0.70294      .   S
    C140   O589      0.70294      .   S
    C112   O590      0.69418      .   S
    C114   O590      0.69418      .   S
    C112   O591      0.70271      .   S
    C110   O591      0.70271      .   S
    C115   O592      0.67310      .   S
    C251   O592      0.67310      .   S
    C114   O593      0.67310      .   S
    C250   O593      0.67310      .   S
    C144   O594      0.67308      .   S
    C256   O594      0.67308      .   S
    C145   O595      0.67307      .   S
    C257   O595      0.67307      .   S
    C266   O596      1.02590      .   S
    C2     O596      1.02590      .   S
    C266   O597      0.63648      .   S
    C190   O597      0.63648      .   S
    C267   O598      1.02590      .   S
    C3     O598      1.02590      .   S
    C267   O599      0.63648      .   S
    C191   O599      0.63648      .   S
    C2     O600      1.09720      .   S
    C250   O600      1.09720      .   S
    C2     O601      1.09719      .   S
    C256   O601      1.09719      .   S
    C2     O602      1.01700      .   S
    C272   O602      1.01700      .   S
    C3     O603      1.09721      .   S
    C251   O603      1.09721      .   S
    C3     O604      1.09718      .   S
    C257   O604      1.09718      .   S
    C3     O605      1.01700      .   S
    C273   O605      1.01700      .   S
    C141   O606      0.74210      .   S
    C110   O606      0.74210      .   S
    C141   O607      0.70269      .   S
    C139   O607      0.70269      .   S
    C140   O608      0.74187      .   S
    C111   O608      0.74187  1_655   S
    C140   O609      0.70269      .   S
    C138   O609      0.70269      .   S
    C110   O610      0.70269      .   S
    C108   O610      0.70269      .   S
    C111   O611      0.70270      .   S
    C109   O611      0.70270      .   S
    C251   O612      0.67301      .   S
    C107   O612      0.67301      .   S
    C250   O613      0.67300      .   S
    C106   O613      0.67300      .   S
    C257   O614      0.67303      .   S
    C137   O614      0.67303      .   S
    C256   O615      0.67303      .   S
    C136   O615      0.67303      .   S
    C184   O616      0.75082      .   S
    C190   O616      0.75082      .   S
    C184   O617      0.70033      .   S
    C182   O617      0.70033      .   S
    C185   O618      0.75082      .   S
    C191   O618      0.75082      .   S
    C185   O619      0.70033      .   S
    C183   O619      0.70033      .   S
    C139   O620      0.69487      .   S
    C137   O620      0.69487      .   S
    C139   O621      0.54402      .   S
    C43    O621      0.54402      .   S
    C138   O622      0.69486      .   S
    C136   O622      0.69486      .   S
    C138   O623      0.54402      .   S
    C42    O623      0.54402      .   S
    C108   O624      0.69486      .   S
    C106   O624      0.69486      .   S
    C108   O625      0.54404      .   S
    C18    O625      0.54404      .   S
    C109   O626      0.69488      .   S
    C107   O626      0.69488      .   S
    C109   O627      0.54403      .   S
    C19    O627      0.54403      .   S
    C136   O628      0.54481      .   S
    C40    O628      0.54481      .   S
    C137   O629      0.54481      .   S
    C41    O629      0.54481      .   S
    C107   O630      0.54481      .   S
    C17    O630      0.54481      .   S
    C106   O631      0.54483      .   S
    C16    O631      0.54483      .   S
    C181   O632      0.70416      .   S
    C183   O632      0.70416      .   S
    C181   O633      0.70864      .   S
    C193   O633      0.70864      .   S
    C180   O634      0.70416      .   S
    C182   O634      0.70416      .   S
    C180   O635      0.70864      .   S
    C192   O635      0.70864      .   S
