# CIF file generated by openbabel 2.4.90, see http://openbabel.sf.net
data_I
_chemical_name_common ''
_cell_length_a 13.183
_cell_length_b 13.173
_cell_length_c 13.98
_cell_angle_alpha 105.565
_cell_angle_beta 105.292
_cell_angle_gamma 93.379
_space_group_name_H-M_alt 'P 1'
_space_group_name_Hall 'P 1'
loop_
    _symmetry_equiv_pos_as_xyz
    x,y,z
loop_
    _atom_site_label
    _atom_site_type_symbol
    _atom_site_fract_x
    _atom_site_fract_y
    _atom_site_fract_z
    _atom_site_occupancy
    C0      C    0.18164   0.86690   0.86240   1.000
    C1      C    0.13325   0.81813   0.63762   1.000
    C2      C    0.81838   0.13312   0.13762   1.000
    C3      C    0.86678   0.18189   0.36240   1.000
    C4      C    0.52567   0.90090   0.94753   1.000
    C5      C    0.71663   0.89792   0.96197   1.000
    C6      C    0.44866   0.82347   0.61565   1.000
    C7      C    0.86025   0.86438   0.87487   1.000
    C8      C    0.03843   0.92167   0.98494   1.000
    C9      C    0.00831   0.91283   0.15040   1.000
    C10     C    0.31351   0.80182   0.22361   1.000
    C11     C    0.40353   0.88502   0.04369   1.000
    C12     C    0.41530   0.78303   0.10640   1.000
    C13     C    0.34181   0.75400   0.97230   1.000
    C14     C    0.78578   0.80431   0.54475   1.000
    C15     C    0.59435   0.80646   0.53069   1.000
    C16     C    0.09820   0.47236   0.55163   1.000
    C17     C    0.10134   0.28139   0.53790   1.000
    C18     C    0.17609   0.55235   0.88374   1.000
    C19     C    0.13555   0.13864   0.62566   1.000
    C20     C    0.07786   0.96110   0.51567   1.000
    C21     C    0.08623   0.99102   0.34992   1.000
    C22     C    0.19755   0.68542   0.27523   1.000
    C23     C    0.11524   0.59538   0.45548   1.000
    C24     C    0.21712   0.58384   0.39237   1.000
    C25     C    0.24582   0.65769   0.52656   1.000
    C26     C    0.19598   0.21598   0.95600   1.000
    C27     C    0.19344   0.40749   0.96942   1.000
    C28     C    0.47436   0.09913   0.05250   1.000
    C29     C    0.28340   0.10210   0.03806   1.000
    C30     C    0.55137   0.17655   0.38438   1.000
    C31     C    0.13978   0.13564   0.12516   1.000
    C32     C    0.96160   0.07835   0.01509   1.000
    C33     C    0.99172   0.08719   0.84956   1.000
    C34     C    0.68652   0.19820   0.77641   1.000
    C35     C    0.59650   0.11500   0.95633   1.000
    C36     C    0.58472   0.21698   0.89362   1.000
    C37     C    0.65822   0.24602   0.02765   1.000
    C38     C    0.21425   0.19571   0.45528   1.000
    C39     C    0.40568   0.19356   0.46933   1.000
    C40     C    0.90182   0.52767   0.44839   1.000
    C41     C    0.89869   0.71864   0.46212   1.000
    C42     C    0.82395   0.44767   0.11628   1.000
    C43     C    0.86448   0.86138   0.37436   1.000
    C44     C    0.92217   0.03893   0.48435   1.000
    C45     C    0.91380   0.00900   0.65010   1.000
    C46     C    0.80249   0.31460   0.72479   1.000
    C47     C    0.88479   0.40465   0.54455   1.000
    C48     C    0.78292   0.41619   0.60765   1.000
    C49     C    0.75421   0.34234   0.47347   1.000
    C50     C    0.80406   0.78405   0.04395   1.000
    C51     C    0.80660   0.59254   0.03060   1.000
    C52     C    0.35943   0.85628   0.77102   1.000
    C53     C    0.47561   0.86031   0.77965   1.000
    C54     C    0.55229   0.88275   0.87820   1.000
    C55     C    0.65843   0.88073   0.88592   1.000
    C56     C    0.50824   0.83996   0.69070   1.000
    C57     C    0.69366   0.85789   0.79559   1.000
    C58     C    0.80169   0.85287   0.80014   1.000
    C59     C    0.09809   0.89735   0.04146   1.000
    C60     C    0.08158   0.89125   0.13378   1.000
    C61     C    0.15869   0.85387   0.20093   1.000
    C62     C    0.25018   0.82834   0.17220   1.000
    C63     C    0.26330   0.83820   0.07912   1.000
    C64     C    0.36173   0.81308   0.04914   1.000
    C65     C    0.83476   0.83420   0.71146   1.000
    C66     C    0.95053   0.83433   0.71913   1.000
    C67     C    0.75866   0.81844   0.61365   1.000
    C68     C    0.65262   0.82009   0.60621   1.000
    C69     C    0.61684   0.83950   0.69605   1.000
    C70     C    0.14330   0.64017   0.72810   1.000
    C71     C    0.13912   0.52391   0.71960   1.000
    C72     C    0.11651   0.44641   0.62118   1.000
    C73     C    0.11865   0.34025   0.61385   1.000
    C74     C    0.15953   0.49207   0.80879   1.000
    C75     C    0.14173   0.30586   0.70445   1.000
    C76     C    0.14703   0.19787   0.70028   1.000
    C77     C    0.10216   0.90133   0.45874   1.000
    C78     C    0.10798   0.91772   0.36634   1.000
    C79     C    0.14531   0.84044   0.29860   1.000
    C80     C    0.17105   0.74889   0.32697   1.000
    C81     C    0.16150   0.73590   0.42023   1.000
    C82     C    0.18691   0.63746   0.44988   1.000
    C83     C    0.16588   0.16555   0.78919   1.000
    C84     C    0.16588   0.04969   0.78157   1.000
    C85     C    0.18169   0.24246   0.88694   1.000
    C86     C    0.17979   0.34852   0.89401   1.000
    C87     C    0.16017   0.38349   0.80389   1.000
    C88     C    0.64060   0.14375   0.22900   1.000
    C89     C    0.52442   0.13971   0.22037   1.000
    C90     C    0.44773   0.11728   0.12182   1.000
    C91     C    0.34160   0.11930   0.11411   1.000
    C92     C    0.49179   0.16006   0.30929   1.000
    C93     C    0.30636   0.14213   0.20444   1.000
    C94     C    0.19834   0.14715   0.19988   1.000
    C95     C    0.90194   0.10267   0.95856   1.000
    C96     C    0.91845   0.10877   0.86624   1.000
    C97     C    0.84135   0.14615   0.79910   1.000
    C98     C    0.74985   0.17168   0.82770   1.000
    C99     C    0.73673   0.16183   0.92090   1.000
    C100    C    0.63830   0.18694   0.95088   1.000
    C101    C    0.16526   0.16582   0.28850   1.000
    C102    C    0.04950   0.16569   0.28000   1.000
    C103    C    0.24136   0.18158   0.38637   1.000
    C104    C    0.34740   0.17993   0.39381   1.000
    C105    C    0.38318   0.16053   0.30398   1.000
    C106    C    0.85672   0.35985   0.27192   1.000
    C107    C    0.86092   0.47611   0.28040   1.000
    C108    C    0.88352   0.55361   0.37884   1.000
    C109    C    0.88138   0.65978   0.38617   1.000
    C110    C    0.84050   0.50795   0.19120   1.000
    C111    C    0.85830   0.69416   0.29557   1.000
    C112    C    0.85300   0.80215   0.29974   1.000
    C113    C    0.89787   0.09870   0.54128   1.000
    C114    C    0.89206   0.08230   0.63369   1.000
    C115    C    0.85472   0.15958   0.70134   1.000
    C116    C    0.82898   0.25113   0.67305   1.000
    C117    C    0.83853   0.26413   0.57979   1.000
    C118    C    0.81312   0.36257   0.55014   1.000
    C119    C    0.83415   0.83447   0.21083   1.000
    C120    C    0.83415   0.95033   0.21846   1.000
    C121    C    0.81835   0.75757   0.11308   1.000
    C122    C    0.82024   0.65150   0.10602   1.000
    C123    C    0.83986   0.61653   0.19613   1.000
    C124    C    0.18598   0.87161   0.01361   1.000
    C125    C    0.12820   0.81343   0.48625   1.000
    C126    C    0.81405   0.12841   0.98640   1.000
    C127    C    0.87183   0.18659   0.51377   1.000
    C128    C    0.33420   0.89427   0.85424   1.000
    C129    C    0.29478   0.81402   0.68098   1.000
    C130    C    0.97756   0.83554   0.63781   1.000
    C131    C    0.01353   0.83548   0.80574   1.000
    C132    C    0.10552   0.66514   0.64499   1.000
    C133    C    0.18565   0.70521   0.81807   1.000
    C134    C    0.16456   0.02287   0.86285   1.000
    C135    C    0.16475   0.98633   0.69479   1.000
    C136    C    0.66583   0.10576   0.14579   1.000
    C137    C    0.70524   0.18601   0.31904   1.000
    C138    C    0.02247   0.16449   0.36221   1.000
    C139    C    0.98650   0.16455   0.19429   1.000
    C140    C    0.89451   0.33488   0.35500   1.000
    C141    C    0.81438   0.29482   0.18195   1.000
    C142    C    0.83547   0.97715   0.13717   1.000
    C143    C    0.83527   0.01369   0.30523   1.000
    O144    O    0.14203   0.88448   0.02753   1.000
    O145    O    0.22464   0.85490   0.04637   1.000
    O146    O    0.18381   0.86926   0.93801   1.000
    O147    O    0.93177   0.09051   0.98682   1.000
    O148    O    0.64826   0.21648   0.98926   1.000
    O149    O    0.81342   0.62202   0.06831   1.000
    O150    O    0.31250   0.11070   0.07608   1.000
    O151    O    0.08983   0.89430   0.08762   1.000
    O152    O    0.06826   0.90951   0.01320   1.000
    O153    O    0.38263   0.84905   0.04641   1.000
    O154    O    0.81120   0.77081   0.07852   1.000
    O155    O    0.31252   0.82564   0.06413   1.000
    O156    O    0.38852   0.79806   0.07777   1.000
    O157    O    0.35177   0.78354   0.01072   1.000
    O158    O    0.46105   0.10820   0.08716   1.000
    O159    O    0.25674   0.83327   0.12566   1.000
    O160    O    0.81929   0.70454   0.10955   1.000
    O161    O    0.83005   0.63402   0.15107   1.000
    O162    O    0.82625   0.79602   0.16195   1.000
    O163    O    0.39467   0.11829   0.11797   1.000
    O164    O    0.32398   0.13071   0.15927   1.000
    O165    O    0.83222   0.47781   0.15374   1.000
    O166    O    0.48608   0.12849   0.17110   1.000
    O167    O    0.16906   0.14140   0.16252   1.000
    O168    O    0.04494   0.90204   0.14209   1.000
    O169    O    0.12013   0.87256   0.16736   1.000
    O170    O    0.82693   0.05514   0.13739   1.000
    O171    O    0.83481   0.96374   0.17782   1.000
    O172    O    0.74211   0.11944   0.14170   1.000
    O173    O    0.81638   0.21397   0.15979   1.000
    O174    O    0.90244   0.14884   0.16595   1.000
    O175    O    0.81622   0.13077   0.06201   1.000
    O176    O    0.65321   0.12475   0.18740   1.000
    O177    O    0.20443   0.84110   0.18657   1.000
    O178    O    0.28185   0.81508   0.19791   1.000
    O179    O    0.83555   0.32733   0.22693   1.000
    O180    O    0.84018   0.56224   0.19367   1.000
    O181    O    0.85071   0.49203   0.23580   1.000
    O182    O    0.01800   0.16512   0.23715   1.000
    O183    O    0.84908   0.65535   0.24585   1.000
    O184    O    0.25235   0.14464   0.20216   1.000
    O185    O    0.18180   0.15649   0.24419   1.000
    O186    O    0.15200   0.84716   0.24976   1.000
    O187    O    0.34477   0.15133   0.25421   1.000
    O188    O    0.83415   0.89240   0.21465   1.000
    O189    O    0.84357   0.81831   0.25528   1.000
    O190    O    0.83471   0.98201   0.26184   1.000
    O191    O    0.58251   0.14173   0.22468   1.000
    O192    O    0.50810   0.14989   0.26483   1.000
    O193    O    0.67292   0.16488   0.27402   1.000
    O194    O    0.85882   0.41798   0.27616   1.000
    O195    O    0.87561   0.34737   0.31346   1.000
    O196    O    0.18430   0.71716   0.30110   1.000
    O197    O    0.10738   0.16576   0.28425   1.000
    O198    O    0.03598   0.16509   0.32111   1.000
    O199    O    0.87222   0.51486   0.32962   1.000
    O200    O    0.20331   0.17370   0.33743   1.000
    O201    O    0.85565   0.74816   0.29766   1.000
    O202    O    0.86984   0.67697   0.34087   1.000
    O203    O    0.15818   0.79467   0.31278   1.000
    O204    O    0.12664   0.87908   0.33247   1.000
    O205    O    0.85874   0.83177   0.33705   1.000
    O206    O    0.43748   0.16029   0.30663   1.000
    O207    O    0.36529   0.17023   0.34889   1.000
    O208    O    0.85102   0.09779   0.33382   1.000
    O209    O    0.52158   0.16831   0.34684   1.000
    O210    O    0.78601   0.18395   0.34072   1.000
    O211    O    0.16628   0.74239   0.37360   1.000
    O212    O    0.09710   0.95437   0.35813   1.000
    O213    O    0.88064   0.25839   0.35870   1.000
    O214    O    0.94462   0.17319   0.36230   1.000
    O215    O    0.86930   0.18424   0.43809   1.000
    O216    O    0.10507   0.90952   0.41254   1.000
    O217    O    0.88245   0.60669   0.38251   1.000
    O218    O    0.89267   0.54064   0.41362   1.000
    O219    O    0.89003   0.68921   0.42414   1.000
    O220    O    0.29438   0.18075   0.39009   1.000
    O221    O    0.22781   0.18864   0.42083   1.000
    O222    O    0.20201   0.61065   0.42112   1.000
    O223    O    0.37654   0.18674   0.43157   1.000
    O224    O    0.17421   0.68668   0.43506   1.000
    O225    O    0.14485   0.77466   0.45324   1.000
    O226    O    0.15108   0.61642   0.45268   1.000
    O227    O    0.21637   0.64757   0.48822   1.000
    O228    O    0.11518   0.85738   0.47249   1.000
    O229    O    0.09001   0.93121   0.48720   1.000
    O230    O    0.78366   0.35245   0.51181   1.000
    O231    O    0.91002   0.06881   0.51282   1.000
    O232    O    0.13072   0.81578   0.56193   1.000
    O233    O    0.88485   0.14264   0.52753   1.000
    O234    O    0.85518   0.22536   0.54678   1.000
    O235    O    0.62348   0.81328   0.56845   1.000
    O236    O    0.11000   0.31082   0.57588   1.000
    O237    O    0.89496   0.09050   0.58749   1.000
    O238    O    0.84896   0.38361   0.54734   1.000
    O239    O    0.77222   0.81138   0.57920   1.000
    O240    O    0.82582   0.31335   0.56496   1.000
    O241    O    0.79802   0.38938   0.57890   1.000
    O242    O    0.10736   0.45938   0.58640   1.000
    O243    O    0.83376   0.25763   0.62642   1.000
    O244    O    0.70564   0.81927   0.60993   1.000
    O245    O    0.63473   0.82980   0.65113   1.000
    O246    O    0.79671   0.82632   0.66256   1.000
    O247    O    0.11758   0.39333   0.61752   1.000
    O248    O    0.13019   0.32306   0.65915   1.000
    O249    O    0.47845   0.83172   0.65317   1.000
    O250    O    0.12781   0.48516   0.67039   1.000
    O251    O    0.14129   0.16826   0.66297   1.000
    O252    O    0.90293   0.04565   0.64190   1.000
    O253    O    0.87339   0.12094   0.66751   1.000
    O254    O    0.05540   0.82684   0.63771   1.000
    O255    O    0.11938   0.74164   0.64130   1.000
    O256    O    0.21402   0.81607   0.65930   1.000
    O257    O    0.14900   0.90223   0.66621   1.000
    O258    O    0.96404   0.83494   0.67847   1.000
    O259    O    0.12441   0.65266   0.68655   1.000
    O260    O    0.84185   0.20536   0.68720   1.000
    O261    O    0.81573   0.28287   0.69892   1.000
    O262    O    0.32711   0.83515   0.72600   1.000
    O263    O    0.56254   0.83973   0.69337   1.000
    O264    O    0.49193   0.85014   0.73518   1.000
    O265    O    0.16532   0.01801   0.73818   1.000
    O266    O    0.65525   0.84869   0.74582   1.000
    O267    O    0.14438   0.25187   0.70237   1.000
    O268    O    0.15646   0.18171   0.74474   1.000
    O269    O    0.84803   0.15286   0.75022   1.000
    O270    O    0.15095   0.34468   0.75417   1.000
    O271    O    0.89265   0.83427   0.71530   1.000
    O272    O    0.81823   0.84354   0.75580   1.000
    O273    O    0.98203   0.83490   0.76243   1.000
    O274    O    0.14121   0.58204   0.72385   1.000
    O275    O    0.14933   0.50799   0.76420   1.000
    O276    O    0.16447   0.67269   0.77309   1.000
    O277    O    0.41752   0.85829   0.77533   1.000
    O278    O    0.34681   0.87527   0.81263   1.000
    O279    O    0.71818   0.18494   0.80206   1.000
    O280    O    0.51395   0.87153   0.82893   1.000
    O281    O    0.16588   0.10762   0.78538   1.000
    O282    O    0.16522   0.03628   0.82221   1.000
    O283    O    0.17378   0.20401   0.83806   1.000
    O284    O    0.74768   0.85538   0.79786   1.000
    O285    O    0.67604   0.86931   0.84076   1.000
    O286    O    0.79560   0.15892   0.81340   1.000
    O287    O    0.87990   0.12746   0.83267   1.000
    O288    O    0.83097   0.85863   0.83751   1.000
    O289    O    0.15985   0.43778   0.80634   1.000
    O290    O    0.16998   0.36601   0.84895   1.000
    O291    O    0.09758   0.85119   0.83407   1.000
    O292    O    0.16781   0.52221   0.84626   1.000
    O293    O    0.18364   0.78605   0.84023   1.000
    O294    O    0.74329   0.16676   0.87430   1.000
    O295    O    0.95509   0.09798   0.85790   1.000
    O296    O    0.25792   0.88059   0.85832   1.000
    O297    O    0.17310   0.94489   0.86263   1.000
    O298    O    0.91020   0.10572   0.91240   1.000
    O299    O    0.60536   0.88174   0.88206   1.000
    O300    O    0.53898   0.89182   0.91287   1.000
    O301    O    0.68753   0.88932   0.92395   1.000
    O302    O    0.18074   0.29549   0.89048   1.000
    O303    O    0.18883   0.22922   0.92147   1.000
    O304    O    0.61151   0.20196   0.92225   1.000
    O305    O    0.18662   0.37801   0.93171   1.000
    O306    O    0.68751   0.17438   0.93589   1.000
    O307    O    0.77539   0.14512   0.95365   1.000
    O308    O    0.61740   0.15097   0.95361   1.000
    O309    O    0.85800   0.11554   0.97248   1.000
    O310    O    0.15744   0.84252   0.75001   1.000
    O311    O    0.84258   0.15751   0.25001   1.000
loop_
    _geom_bond_atom_site_label_1
    _geom_bond_atom_site_label_2
    _geom_bond_distance
    _geom_bond_site_symmetry_2
    _ccdc_geom_bond_type
    C124   O144      0.67498      .   S
    C59    O144      0.67498      .   S
    C124   O145      0.67980      .   S
    C63    O145      0.67980      .   S
    C124   O146      1.04179  1_554   S
    C0     O146      1.04179      .   S
    C32    O147      0.54392  1_554   S
    C95    O147      0.54392      .   S
    C37    O148      0.54899  1_554   S
    C100   O148      0.54899      .   S
    C51    O149      0.54575      .   S
    C122   O149      0.54575      .   S
    C29    O150      0.54550      .   S
    C91    O150      0.54550      .   S
    C59    O151      0.69307      .   S
    C60    O151      0.69307      .   S
    C59    O152      0.54388      .   S
    C8     O152      0.54388  1_556   S
    C11    O153      0.54925      .   S
    C64    O153      0.54925      .   S
    C50    O154      0.54401      .   S
    C121   O154      0.54401      .   S
    C64    O155      0.74697      .   S
    C63    O155      0.74697      .   S
    C64    O156      0.54797      .   S
    C12    O156      0.54797      .   S
    C64    O157      0.54934      .   S
    C13    O157      0.54934  1_556   S
    C28    O158      0.54416      .   S
    C90    O158      0.54416      .   S
    C63    O159      0.69765      .   S
    C62    O159      0.69765      .   S
    C122   O160      0.68811      .   S
    C121   O160      0.68811      .   S
    C122   O161      0.71058      .   S
    C123   O161      0.71058      .   S
    C121   O162      0.71047      .   S
    C119   O162      0.71047      .   S
    C91    O163      0.68856      .   S
    C90    O163      0.68856      .   S
    C91    O164      0.71115      .   S
    C93    O164      0.71115      .   S
    C42    O165      0.54493      .   S
    C110   O165      0.54493      .   S
    C90    O166      0.71046      .   S
    C89    O166      0.71046      .   S
    C31    O167      0.54451      .   S
    C94    O167      0.54451      .   S
    C60    O168      0.54384      .   S
    C9     O168      0.54384      .   S
    C60    O169      0.70013      .   S
    C61    O169      0.70013      .   S
    C142   O170      1.03929  1_565   S
    C2     O170      1.03929      .   S
    C142   O171      0.64065      .   S
    C120   O171      0.64065      .   S
    C2     O172      1.03023      .   S
    C136   O172      1.03023      .   S
    C2     O173      1.03027      .   S
    C141   O173      1.03027      .   S
    C2     O174      1.06073      .   S
    C139   O174      1.06073      .   S
    C2     O175      1.04186      .   S
    C126   O175      1.04186  1_556   S
    C136   O176      0.63750      .   S
    C88    O176      0.63750      .   S
    C62    O177      0.70003      .   S
    C61    O177      0.70003      .   S
    C62    O178      0.54501      .   S
    C10    O178      0.54501      .   S
    C141   O179      0.63690      .   S
    C106   O179      0.63690      .   S
    C110   O180      0.70702      .   S
    C123   O180      0.70702      .   S
    C110   O181      0.69288      .   S
    C107   O181      0.69288      .   S
    C139   O182      0.63041  1_655   S
    C102   O182      0.63041      .   S
    C123   O183      0.71884      .   S
    C111   O183      0.71884      .   S
    C94    O184      0.70748      .   S
    C93    O184      0.70748      .   S
    C94    O185      0.69273      .   S
    C101   O185      0.69273      .   S
    C61    O186      0.73821      .   S
    C79    O186      0.73821      .   S
    C93    O187      0.71894      .   S
    C105   O187      0.71894      .   S
    C119   O188      0.75059      .   S
    C120   O188      0.75059      .   S
    C119   O189      0.69309      .   S
    C112   O189      0.69309      .   S
    C120   O190      0.63523      .   S
    C143   O190      0.63523  1_545   S
    C89    O191      0.75044      .   S
    C88    O191      0.75044      .   S
    C89    O192      0.69265      .   S
    C92    O192      0.69265      .   S
    C88    O193      0.63695      .   S
    C137   O193      0.63695      .   S
    C106   O194      0.75028      .   S
    C107   O194      0.75028      .   S
    C106   O195      0.63728      .   S
    C140   O195      0.63728      .   S
    C22    O196      0.54483      .   S
    C80    O196      0.54483      .   S
    C102   O197      0.74952      .   S
    C101   O197      0.74952      .   S
    C102   O198      0.64678      .   S
    C138   O198      0.64678      .   S
    C107   O199      0.71042      .   S
    C108   O199      0.71042      .   S
    C101   O200      0.71074      .   S
    C103   O200      0.71074      .   S
    C111   O201      0.70733      .   S
    C112   O201      0.70733      .   S
    C111   O202      0.71114      .   S
    C109   O202      0.71114      .   S
    C79    O203      0.70014      .   S
    C80    O203      0.70014      .   S
    C79    O204      0.70051      .   S
    C78    O204      0.70051      .   S
    C112   O205      0.54450      .   S
    C43    O205      0.54450      .   S
    C105   O206      0.70721      .   S
    C92    O206      0.70721      .   S
    C105   O207      0.71051      .   S
    C104   O207      0.71051      .   S
    C143   O208      1.05908      .   S
    C3     O208      1.05908      .   S
    C92    O209      0.54514      .   S
    C30    O209      0.54514      .   S
    C137   O210      1.03146      .   S
    C3     O210      1.03146      .   S
    C80    O211      0.69801      .   S
    C81    O211      0.69801      .   S
    C21    O212      0.54411      .   S
    C78    O212      0.54411      .   S
    C140   O213      1.03087      .   S
    C3     O213      1.03087      .   S
    C138   O214      1.03960  1_455   S
    C3     O214      1.03960      .   S
    C3     O215      1.04179      .   S
    C127   O215      1.04179      .   S
    C78    O216      0.69302      .   S
    C77    O216      0.69302      .   S
    C108   O217      0.68854      .   S
    C109   O217      0.68854      .   S
    C108   O218      0.54422      .   S
    C40    O218      0.54422      .   S
    C109   O219      0.54548      .   S
    C41    O219      0.54548      .   S
    C103   O220      0.68802      .   S
    C104   O220      0.68802      .   S
    C103   O221      0.54401      .   S
    C38    O221      0.54401      .   S
    C24    O222      0.54797      .   S
    C82    O222      0.54797      .   S
    C104   O223      0.54573      .   S
    C39    O223      0.54573      .   S
    C81    O224      0.74699      .   S
    C82    O224      0.74699      .   S
    C81    O225      0.67980      .   S
    C125   O225      0.67980      .   S
    C82    O226      0.54927      .   S
    C23    O226      0.54927      .   S
    C82    O227      0.54919      .   S
    C25    O227      0.54919      .   S
    C77    O228      0.67498      .   S
    C125   O228      0.67498      .   S
    C77    O229      0.54405      .   S
    C20    O229      0.54405      .   S
    C49    O230      0.54914      .   S
    C118   O230      0.54914      .   S
    C44    O231      0.54404      .   S
    C113   O231      0.54404      .   S
    C125   O232      1.04179      .   S
    C1     O232      1.04179      .   S
    C127   O233      0.67497      .   S
    C113   O233      0.67497      .   S
    C127   O234      0.67980      .   S
    C117   O234      0.67980      .   S
    C15    O235      0.54573      .   S
    C68    O235      0.54573      .   S
    C17    O236      0.54548      .   S
    C73    O236      0.54548      .   S
    C113   O237      0.69309      .   S
    C114   O237      0.69309      .   S
    C47    O238      0.54924      .   S
    C118   O238      0.54924      .   S
    C14    O239      0.54395      .   S
    C67    O239      0.54395      .   S
    C118   O240      0.74699      .   S
    C117   O240      0.74699      .   S
    C118   O241      0.54797      .   S
    C48    O241      0.54797      .   S
    C16    O242      0.54422      .   S
    C72    O242      0.54422      .   S
    C117   O243      0.69800      .   S
    C116   O243      0.69800      .   S
    C68    O244      0.68802      .   S
    C67    O244      0.68802      .   S
    C68    O245      0.71057      .   S
    C69    O245      0.71057      .   S
    C67    O246      0.71043      .   S
    C65    O246      0.71043      .   S
    C73    O247      0.68854      .   S
    C72    O247      0.68854      .   S
    C73    O248      0.71114      .   S
    C75    O248      0.71114      .   S
    C6     O249      0.54494      .   S
    C56    O249      0.54494      .   S
    C72    O250      0.71032      .   S
    C71    O250      0.71032      .   S
    C19    O251      0.54450      .   S
    C76    O251      0.54450      .   S
    C114   O252      0.54408      .   S
    C45    O252      0.54408      .   S
    C114   O253      0.70014      .   S
    C115   O253      0.70014      .   S
    C1     O254      1.03960      .   S
    C130   O254      1.03960  1_655   S
    C1     O255      1.03080      .   S
    C132   O255      1.03080      .   S
    C1     O256      1.03147      .   S
    C129   O256      1.03147      .   S
    C1     O257      1.05908      .   S
    C135   O257      1.05908      .   S
    C130   O258      0.64078      .   S
    C66    O258      0.64078      .   S
    C132   O259      0.63746      .   S
    C70    O259      0.63746      .   S
    C116   O260      0.69990      .   S
    C115   O260      0.69990      .   S
    C116   O261      0.54483      .   S
    C46    O261      0.54483      .   S
    C129   O262      0.63696      .   S
    C52    O262      0.63696      .   S
    C56    O263      0.70715      .   S
    C69    O263      0.70715      .   S
    C56    O264      0.69284      .   S
    C53    O264      0.69284      .   S
    C135   O265      0.63527  1_565   S
    C84    O265      0.63527      .   S
    C69    O266      0.71894      .   S
    C57    O266      0.71894      .   S
    C76    O267      0.70733      .   S
    C75    O267      0.70733      .   S
    C76    O268      0.69309      .   S
    C83    O268      0.69309      .   S
    C115   O269      0.73883      .   S
    C97    O269      0.73883      .   S
    C75    O270      0.71885      .   S
    C87    O270      0.71885      .   S
    C65    O271      0.75064      .   S
    C66    O271      0.75064      .   S
    C65    O272      0.69312      .   S
    C58    O272      0.69312      .   S
    C66    O273      0.63528      .   S
    C131   O273      0.63528  1_455   S
    C71    O274      0.75025      .   S
    C70    O274      0.75025      .   S
    C71    O275      0.69282      .   S
    C74    O275      0.69282      .   S
    C70    O276      0.63690      .   S
    C133   O276      0.63690      .   S
    C52    O277      0.75044      .   S
    C53    O277      0.75044      .   S
    C52    O278      0.63756      .   S
    C128   O278      0.63756      .   S
    C34    O279      0.54456      .   S
    C98    O279      0.54456      .   S
    C53    O280      0.71046      .   S
    C54    O280      0.71046      .   S
    C84    O281      0.75060      .   S
    C83    O281      0.75060      .   S
    C84    O282      0.64059      .   S
    C134   O282      0.64059      .   S
    C83    O283      0.71047      .   S
    C85    O283      0.71047      .   S
    C57    O284      0.70749      .   S
    C58    O284      0.70749      .   S
    C57    O285      0.71115      .   S
    C55    O285      0.71115      .   S
    C97    O286      0.69963      .   S
    C98    O286      0.69963      .   S
    C97    O287      0.70008      .   S
    C96    O287      0.70008      .   S
    C58    O288      0.54456      .   S
    C7     O288      0.54456      .   S
    C87    O289      0.70707      .   S
    C74    O289      0.70707      .   S
    C87    O290      0.71064      .   S
    C86    O290      0.71064      .   S
    C131   O291      1.06072      .   S
    C0     O291      1.06072      .   S
    C74    O292      0.54508      .   S
    C18    O292      0.54508      .   S
    C133   O293      1.03027      .   S
    C0     O293      1.03027      .   S
    C98    O294      0.69848      .   S
    C99    O294      0.69848      .   S
    C33    O295      0.54399      .   S
    C96    O295      0.54399      .   S
    C128   O296      1.03021      .   S
    C0     O296      1.03021      .   S
    C0     O297      1.03929      .   S
    C134   O297      1.03929  1_545   S
    C96    O298      0.69306      .   S
    C95    O298      0.69306      .   S
    C54    O299      0.68854      .   S
    C55    O299      0.68854      .   S
    C54    O300      0.54422      .   S
    C4     O300      0.54422      .   S
    C55    O301      0.54550      .   S
    C5     O301      0.54550      .   S
    C85    O302      0.68809      .   S
    C86    O302      0.68809      .   S
    C85    O303      0.54355      .   S
    C26    O303      0.54355      .   S
    C36    O304      0.54796      .   S
    C100   O304      0.54796      .   S
    C86    O305      0.54570      .   S
    C27    O305      0.54570      .   S
    C99    O306      0.74697      .   S
    C100   O306      0.74697      .   S
    C99    O307      0.67976      .   S
    C126   O307      0.67976      .   S
    C100   O308      0.54924      .   S
    C35    O308      0.54924      .   S
    C95    O309      0.67496      .   S
    C126   O309      0.67496      .   S
    C0     O310      1.45820      .   S
    C1     O310      1.45820      .   S
    C2     O311      1.45820      .   S
    C3     O311      1.45820      .   S
