# CIF file generated by openbabel 2.4.90, see http://openbabel.sf.net
data_I
_chemical_name_common ''
_cell_length_a 13.183
_cell_length_b 13.173
_cell_length_c 13.98
_cell_angle_alpha 105.565
_cell_angle_beta 105.292
_cell_angle_gamma 93.379
_space_group_name_H-M_alt 'P 1'
_space_group_name_Hall 'P 1'
loop_
    _symmetry_equiv_pos_as_xyz
    x,y,z
loop_
    _atom_site_label
    _atom_site_type_symbol
    _atom_site_fract_x
    _atom_site_fract_y
    _atom_site_fract_z
    _atom_site_occupancy
    Zr0     Zr   0.18164   0.86690   0.86240   1.000
    Zr1     Zr   0.13325   0.81813   0.63762   1.000
    Zr2     Zr   0.81838   0.13312   0.13762   1.000
    Zr3     Zr   0.86678   0.18189   0.36240   1.000
    O4      O    0.15744   0.84252   0.75001   1.000
    O5      O    0.84258   0.15751   0.25001   1.000
    N6      N    0.18705   0.81237   0.24976   1.000
    O7      O    0.18543   0.84081   0.09388   1.000
    O8      O    0.15889   0.81408   0.40585   1.000
    N9      N    0.84820   0.65530   0.24561   1.000
    O10     O    0.86442   0.45684   0.30215   1.000
    O11     O    0.84961   0.87654   0.28971   1.000
    O12     O    0.83229   0.43463   0.20270   1.000
    O13     O    0.83756   0.85522   0.19150   1.000
    N14     N    0.34484   0.15211   0.25444   1.000
    O15     O    0.14473   0.16265   0.30837   1.000
    O16     O    0.12364   0.15047   0.21020   1.000
    O17     O    0.56542   0.16803   0.29758   1.000
    O18     O    0.54347   0.13577   0.19807   1.000
    N19     N    0.81298   0.18765   0.75025   1.000
    O20     O    0.81460   0.15921   0.90613   1.000
    O21     O    0.84114   0.18595   0.59417   1.000
    N22     N    0.65519   0.84791   0.74554   1.000
    O23     O    0.45655   0.86425   0.80193   1.000
    O24     O    0.87639   0.84955   0.78981   1.000
    O25     O    0.43460   0.83199   0.70242   1.000
    O26     O    0.85530   0.83737   0.69163   1.000
    N27     N    0.15183   0.34473   0.75440   1.000
    O28     O    0.13561   0.54318   0.69785   1.000
    O29     O    0.15042   0.12348   0.71030   1.000
    O30     O    0.16247   0.14481   0.80851   1.000
    O31     O    0.16774   0.56539   0.79732   1.000
loop_
    _geom_bond_atom_site_label_1
    _geom_bond_atom_site_label_2
    _geom_bond_distance
    _geom_bond_site_symmetry_2
    _ccdc_geom_bond_type
    Zr0    O4        1.45820      .   S
    Zr1    O4        1.45820      .   S
    Zr2    O5        1.45820      .   S
    Zr3    O5        1.45820      .   S
    N6     O7        2.30309      .   S
    Zr0    O7        3.33268  1_556   S
    N6     O8        2.30259      .   S
    Zr1    O8        3.33208      .   S
    N9     O10       2.93099      .   S
    Zr3    O10       3.93256      .   S
    N9     O11       2.81034      .   S
    Zr3    O11       3.85240  1_545   S
    N9     O12       2.78913      .   S
    Zr2    O12       3.81096      .   S
    N9     O13       2.92986      .   S
    Zr2    O13       3.93977  1_545   S
    N14    O15       2.92969      .   S
    Zr3    O15       3.94056  1_655   S
    N14    O16       2.81432      .   S
    Zr2    O16       3.85865  1_655   S
    N14    O17       2.79272      .   S
    Zr3    O17       3.81629      .   S
    N14    O18       2.93056      .   S
    Zr2    O18       3.93252      .   S
    N19    O20       2.30313      .   S
    Zr2    O20       3.33280  1_554   S
    N19    O21       2.30250      .   S
    Zr3    O21       3.33199      .   S
    N22    O23       2.93071      .   S
    Zr0    O23       3.93263      .   S
    N22    O24       2.81430      .   S
    Zr0    O24       3.85864  1_455   S
    N22    O25       2.79274      .   S
    Zr1    O25       3.81631      .   S
    N22    O26       2.92955      .   S
    Zr1    O26       3.94043  1_455   S
    N27    O28       2.93101      .   S
    Zr1    O28       3.93249      .   S
    N27    O29       2.81034      .   S
    Zr1    O29       3.85240  1_565   S
    N27    O30       2.92988      .   S
    Zr0    O30       3.93979  1_565   S
    N27    O31       2.78913      .   S
    Zr0    O31       3.81096      .   S
