# CIF file generated by openbabel 2.4.90, see http://openbabel.sf.net
data_I
_chemical_name_common ''
_cell_length_a 10.3735
_cell_length_b 13.1705
_cell_length_c 19.994
_cell_angle_alpha 90.022
_cell_angle_beta 90.002
_cell_angle_gamma 90.307
_space_group_name_H-M_alt 'P 1'
_space_group_name_Hall 'P 1'
loop_
    _symmetry_equiv_pos_as_xyz
    x,y,z
loop_
    _atom_site_label
    _atom_site_type_symbol
    _atom_site_fract_x
    _atom_site_fract_y
    _atom_site_fract_z
    _atom_site_occupancy
    Zr0     Zr   0.93520   0.11607   0.98607   1.000
    Zr1     Zr   0.63333   0.18233   0.98599   1.000
    Zr2     Zr   0.56477   0.88394   0.48606   1.000
    Zr3     Zr   0.86666   0.81768   0.48597   1.000
    Zr4     Zr   0.06200   0.61364   0.51404   1.000
    Zr5     Zr   0.36641   0.68015   0.51386   1.000
    Zr6     Zr   0.43800   0.38636   0.01402   1.000
    Zr7     Zr   0.13356   0.31988   0.01384   1.000
    N8      N    0.25242   0.50015   0.26380   1.000
    O9      O    0.20416   0.42779   0.16044   1.000
    O10     O    0.29998   0.57142   0.36741   1.000
    O11     O    0.33166   0.45987   0.15962   1.000
    O12     O    0.17163   0.54128   0.36789   1.000
    N13     N    0.74583   0.00002   0.23599   1.000
    O14     O    0.79501   0.92662   0.33923   1.000
    O15     O    0.69816   0.07235   0.13251   1.000
    O16     O    0.82576   0.04239   0.13197   1.000
    O17     O    0.66839   0.95866   0.34030   1.000
    N18     N    0.24782   0.49944   0.76368   1.000
    O19     O    0.32853   0.45848   0.86780   1.000
    O20     O    0.20016   0.42836   0.86733   1.000
    O21     O    0.29596   0.57201   0.66038   1.000
    O22     O    0.16847   0.53992   0.65956   1.000
    N23     N    0.25013   0.12919   0.94494   1.000
    O24     O    0.13595   0.13604   0.96765   1.000
    O25     O    0.31668   0.22573   0.98019   1.000
    O26     O    0.39532   0.14328   0.96196   1.000
    N27     N    0.75427   0.00021   0.73593   1.000
    O28     O    0.70503   0.07350   0.83921   1.000
    O29     O    0.83163   0.04145   0.84026   1.000
    O30     O    0.67427   0.95772   0.63194   1.000
    O31     O    0.80188   0.92777   0.63247   1.000
    N32     N    0.75203   0.37275   0.05536   1.000
    O33     O    0.63799   0.36612   0.03255   1.000
    O34     O    0.81698   0.27654   0.02006   1.000
    O35     O    0.89670   0.35932   0.03787   1.000
    N36     N    0.24984   0.87054   0.44487   1.000
    O37     O    0.18330   0.77414   0.48017   1.000
    O38     O    0.36402   0.86382   0.46762   1.000
    O39     O    0.10465   0.85657   0.46191   1.000
    N40     N    0.74785   0.62637   0.55484   1.000
    O41     O    0.60322   0.64023   0.53754   1.000
    O42     O    0.68297   0.72303   0.51979   1.000
    O43     O    0.86196   0.63344   0.53228   1.000
    O44     O    0.71417   0.30411   0.02279   1.000
    O45     O    0.78578   0.69546   0.52252   1.000
    O46     O    0.28691   0.80182   0.47734   1.000
    O47     O    0.21305   0.19805   0.97737   1.000
loop_
    _geom_bond_atom_site_label_1
    _geom_bond_atom_site_label_2
    _geom_bond_distance
    _geom_bond_site_symmetry_2
    _ccdc_geom_bond_type
    N8     O9        2.32870      .   S
    Zr7    O9        3.33675      .   S
    N8     O10       2.32581      .   S
    Zr5    O10       3.32942      .   S
    N8     O11       2.30217      .   S
    Zr6    O11       3.26164      .   S
    N8     O12       2.30897      .   S
    Zr4    O12       3.27864      .   S
    N13    O14       2.33722  1_545   S
    Zr3    O14       3.35165      .   S
    N13    O15       2.33222      .   S
    Zr1    O15       3.33864  1_556   S
    N13    O16       2.30669      .   S
    Zr0    O16       3.27566  1_556   S
    N13    O17       2.29945  1_545   S
    Zr2    O17       3.25721      .   S
    N18    O19       2.30910      .   S
    Zr6    O19       3.27890  1_554   S
    N18    O20       2.32642      .   S
    Zr7    O20       3.33051  1_554   S
    N18    O21       2.32907      .   S
    Zr5    O21       3.33728      .   S
    N18    O22       2.30241      .   S
    Zr4    O22       3.26211      .   S
    N23    O24       1.27211      .   S
    Zr0    O24       2.12975  1_655   S
    N23    O25       1.60620      .   S
    Zr6    O25       2.54704  1_554   S
    N23    O26       1.55421      .   S
    Zr1    O26       2.56459      .   S
    N27    O28       2.33678      .   S
    Zr1    O28       3.35085      .   S
    N27    O29       2.29895      .   S
    Zr0    O29       3.25654      .   S
    N27    O30       2.30629  1_545   S
    Zr2    O30       3.27518      .   S
    N27    O31       2.33167  1_545   S
    Zr3    O31       3.33777      .   S
    N32    O33       1.27037      .   S
    Zr6    O33       2.12568      .   S
    N32    O34       1.60195      .   S
    Zr0    O34       2.54148  1_556   S
    N32    O35       1.55201      .   S
    Zr7    O35       2.55953  1_455   S
    N36    O37       1.60555      .   S
    Zr4    O37       2.54607      .   S
    N36    O38       1.27225      .   S
    Zr2    O38       2.13002      .   S
    N36    O39       1.55416      .   S
    Zr3    O39       2.56431  1_655   S
    N40    O41       1.55138      .   S
    Zr5    O41       2.55921      .   S
    N40    O42       1.60461      .   S
    Zr2    O42       2.54524      .   S
    N40    O43       1.26969      .   S
    Zr4    O43       2.12441  1_455   S
    Zr1    O44       1.94983  1_556   S
    N32    O44       1.17955      .   S
    Zr3    O45       1.95326      .   S
    N40    O45       1.18197      .   S
    Zr5    O46       1.94832      .   S
    N36    O46       1.18016      .   S
    Zr7    O47       1.94921  1_554   S
    N23    O47       1.18075      .   S
