# CIF file generated by openbabel 2.4.90, see http://openbabel.sf.net
data_I
_chemical_name_common ''
_cell_length_a 14.51
_cell_length_b 19.408
_cell_length_c 26.343
_cell_angle_alpha 90
_cell_angle_beta 90.001
_cell_angle_gamma 90.002
_space_group_name_H-M_alt 'P 1'
_space_group_name_Hall 'P 1'
loop_
    _symmetry_equiv_pos_as_xyz
    x,y,z
loop_
    _atom_site_label
    _atom_site_type_symbol
    _atom_site_fract_x
    _atom_site_fract_y
    _atom_site_fract_z
    _atom_site_occupancy
    Lv0     Lv   0.72905   0.81374   0.35519   1.000
    Lv1     Lv   0.27093   0.18627   0.85597   1.000
    Lv2     Lv   0.02093   0.31375   0.85596   1.000
    Lv3     Lv   0.97883   0.68627   0.35519   1.000
    Lv4     Lv   0.22906   0.81375   0.35596   1.000
    Lv5     Lv   0.77094   0.18627   0.85597   1.000
    Lv6     Lv   0.47907   0.68627   0.35597   1.000
    Lv7     Lv   0.52093   0.31375   0.85597   1.000
