# CIF file generated by openbabel 2.4.90, see http://openbabel.sf.net
data_I
_chemical_name_common ''
_cell_length_a 14.51
_cell_length_b 19.408
_cell_length_c 26.343
_cell_angle_alpha 90
_cell_angle_beta 90.001
_cell_angle_gamma 90.002
_space_group_name_H-M_alt 'P 1'
_space_group_name_Hall 'P 1'
loop_
    _symmetry_equiv_pos_as_xyz
    x,y,z
loop_
    _atom_site_label
    _atom_site_type_symbol
    _atom_site_fract_x
    _atom_site_fract_y
    _atom_site_fract_z
    _atom_site_occupancy
    H0      H    0.06169   0.12466   0.03384   1.000
    H1      H    0.56172   0.12465   0.03384   1.000
    H2      H    0.06868   0.23367   0.98467   1.000
    H3      H    0.56869   0.23367   0.98467   1.000
    H4      H    0.13246   0.41656   0.75519   1.000
    H5      H    0.63247   0.41656   0.75519   1.000
    H6      H    0.03503   0.20882   0.73267   1.000
    H7      H    0.53504   0.20882   0.73266   1.000
    H8      H    0.18370   0.42055   0.66549   1.000
    H9      H    0.68373   0.42056   0.66550   1.000
    H10     H    0.09030   0.21295   0.64393   1.000
    H11     H    0.59032   0.21297   0.64390   1.000
    H12     H    0.45994   0.12860   0.85382   1.000
    H13     H    0.95996   0.12860   0.85382   1.000
    H14     H    0.39294   0.47946   0.83601   1.000
    H15     H    0.89296   0.47946   0.83601   1.000
    H16     H    0.04227   0.42492   0.97144   1.000
    H17     H    0.54229   0.42492   0.97140   1.000
    H18     H    0.36497   0.59665   0.87129   1.000
    H19     H    0.86499   0.59665   0.87128   1.000
    H20     H    0.45149   0.01993   0.90370   1.000
    H21     H    0.95149   0.01993   0.90374   1.000
    H22     H    0.01885   0.54305   0.00480   1.000
    H23     H    0.51885   0.54305   0.00481   1.000
    H24     H    0.43834   0.87536   0.53380   1.000
    H25     H    0.93842   0.87535   0.53385   1.000
    H26     H    0.43130   0.76635   0.48467   1.000
    H27     H    0.93131   0.76636   0.48467   1.000
    H28     H    0.36754   0.58346   0.25500   1.000
    H29     H    0.86754   0.58347   0.25519   1.000
    H30     H    0.46496   0.79120   0.23267   1.000
    H31     H    0.96497   0.79121   0.23267   1.000
    H32     H    0.31628   0.57946   0.16550   1.000
    H33     H    0.81630   0.57947   0.16549   1.000
    H34     H    0.40969   0.78705   0.14393   1.000
    H35     H    0.90970   0.78706   0.14393   1.000
    H36     H    0.04002   0.87142   0.35381   1.000
    H37     H    0.54004   0.87142   0.35382   1.000
    H38     H    0.10703   0.52057   0.33601   1.000
    H39     H    0.60706   0.52057   0.33602   1.000
    H40     H    0.45773   0.57511   0.47140   1.000
    H41     H    0.95774   0.57511   0.47145   1.000
    H42     H    0.13500   0.40337   0.37120   1.000
    H43     H    0.63504   0.40338   0.37130   1.000
    H44     H    0.04855   0.98008   0.40374   1.000
    H45     H    0.54853   0.98009   0.40375   1.000
    H46     H    0.48117   0.45697   0.50482   1.000
    H47     H    0.98118   0.45697   0.50481   1.000
    H48     H    0.31161   0.37535   0.03385   1.000
    H49     H    0.81173   0.37536   0.03384   1.000
    H50     H    0.31869   0.26636   0.98460   1.000
    H51     H    0.81870   0.26635   0.98467   1.000
    H52     H    0.38246   0.08347   0.75519   1.000
    H53     H    0.88247   0.08346   0.75520   1.000
    H54     H    0.28503   0.29120   0.73266   1.000
    H55     H    0.78505   0.29120   0.73266   1.000
    H56     H    0.43371   0.07947   0.66549   1.000
    H57     H    0.93373   0.07946   0.66550   1.000
    H58     H    0.34031   0.28705   0.64390   1.000
    H59     H    0.84032   0.28705   0.64392   1.000
    H60     H    0.20996   0.37142   0.85380   1.000
    H61     H    0.70994   0.37142   0.85382   1.000
    H62     H    0.14294   0.02056   0.83601   1.000
    H63     H    0.64296   0.02056   0.83601   1.000
    H64     H    0.29229   0.07510   0.97144   1.000
    H65     H    0.79231   0.07510   0.97144   1.000
    H66     H    0.11497   0.90338   0.87129   1.000
    H67     H    0.61498   0.90338   0.87129   1.000
    C68     C    0.86145   0.68250   0.14857   1.000
    C69     C    0.37900   0.62796   0.23073   1.000
    H70     H    0.20143   0.48008   0.90374   1.000
    H71     H    0.70149   0.48009   0.90374   1.000
    H72     H    0.26886   0.95697   0.00480   1.000
    H73     H    0.76887   0.95696   0.00480   1.000
    H74     H    0.18828   0.62466   0.53384   1.000
    H75     H    0.68862   0.62466   0.53387   1.000
    H76     H    0.18130   0.73367   0.48467   1.000
    H77     H    0.68129   0.73362   0.48466   1.000
    H78     H    0.11752   0.91655   0.25519   1.000
    H79     H    0.61753   0.91656   0.25519   1.000
    H80     H    0.21496   0.70882   0.23267   1.000
    H81     H    0.71497   0.70882   0.23267   1.000
    H82     H    0.06628   0.92055   0.16549   1.000
    H83     H    0.56629   0.92055   0.16549   1.000
    H84     H    0.15969   0.71296   0.14393   1.000
    H85     H    0.65970   0.71296   0.14393   1.000
    H86     H    0.29006   0.62860   0.35382   1.000
    H87     H    0.78998   0.62860   0.35378   1.000
    H88     H    0.35704   0.97946   0.33602   1.000
    H89     H    0.85705   0.97945   0.33602   1.000
    C90     C    0.37100   0.12796   0.73070   1.000
    C91     C    0.87101   0.12796   0.73073   1.000
    C92     C    0.31865   0.24477   0.71861   1.000
    C93     C    0.81866   0.24477   0.71861   1.000
    H94     H    0.20771   0.92492   0.47145   1.000
    H95     H    0.70771   0.92491   0.47145   1.000
    H96     H    0.38501   0.09665   0.37129   1.000
    H97     H    0.88503   0.09664   0.37129   1.000
    H98     H    0.29852   0.51993   0.40375   1.000
    H99     H    0.79867   0.51995   0.40372   1.000
    H100    H    0.23115   0.04305   0.50481   1.000
    H101    H    0.73116   0.04304   0.50481   1.000
    C102    C    0.03880   0.12591   0.99447   1.000
    C103    C    0.53882   0.12591   0.99446   1.000
    C104    C    0.04224   0.18698   0.96680   1.000
    C105    C    0.54226   0.18698   0.96680   1.000
    C106    C    0.07894   0.31246   0.75079   1.000
    C107    C    0.57895   0.31247   0.75079   1.000
    C108    C    0.13855   0.31752   0.64857   1.000
    C109    C    0.63858   0.31754   0.64857   1.000
    C110    C    0.12100   0.37206   0.73072   1.000
    C111    C    0.62101   0.37206   0.73073   1.000
    C112    C    0.06864   0.25524   0.71862   1.000
    C113    C    0.56866   0.25525   0.71861   1.000
    C114    C    0.15013   0.37466   0.68000   1.000
    C115    C    0.65015   0.37467   0.68050   1.000
    C116    C    0.01599   0.18882   0.91532   1.000
    C117    C    0.51600   0.18882   0.91532   1.000
    C118    C    0.09803   0.25776   0.66839   1.000
    C119    C    0.59804   0.25778   0.66839   1.000
    C120    C    0.00664   0.06506   0.97166   1.000
    C121    C    0.50667   0.06506   0.97166   1.000
    C122    C    0.47121   0.44426   0.90082   1.000
    C123    C    0.97122   0.44426   0.90081   1.000
    C124    C    0.48346   0.12766   0.89307   1.000
    C125    C    0.98347   0.12766   0.89307   1.000
    C126    C    0.42080   0.49338   0.87306   1.000
    C127    C    0.92083   0.49339   0.87306   1.000
    C128    C    0.00300   0.46226   0.94939   1.000
    C129    C    0.50300   0.46226   0.94939   1.000
    C130    C    0.40482   0.55885   0.89261   1.000
    C131    C    0.90484   0.55885   0.89260   1.000
    C132    C    0.47798   0.06698   0.92083   1.000
    C133    C    0.97798   0.06698   0.92083   1.000
    C134    C    0.99027   0.52855   0.96811   1.000
    C135    C    0.49027   0.52855   0.96810   1.000
    C136    C    0.44205   0.57772   0.93966   1.000
    C137    C    0.94207   0.57772   0.93966   1.000
    C138    C    0.46122   0.87411   0.49447   1.000
    C139    C    0.96128   0.87411   0.49447   1.000
    C140    C    0.45775   0.81304   0.46680   1.000
    C141    C    0.95777   0.81304   0.46680   1.000
    C142    C    0.42105   0.68755   0.25079   1.000
    C143    C    0.92106   0.68756   0.25079   1.000
    C144    C    0.36144   0.68249   0.14858   1.000
    C145    C    0.87900   0.62796   0.23070   1.000
    C146    C    0.43135   0.74477   0.21862   1.000
    C147    C    0.93136   0.74478   0.21862   1.000
    C148    C    0.34986   0.62535   0.18050   1.000
    C149    C    0.84987   0.62536   0.18049   1.000
    C150    C    0.48400   0.81121   0.41532   1.000
    C151    C    0.98401   0.81121   0.41532   1.000
    C152    C    0.40197   0.74224   0.16800   1.000
    C153    C    0.90198   0.74225   0.16839   1.000
    C154    C    0.49339   0.93496   0.47167   1.000
    C155    C    0.99347   0.93495   0.47167   1.000
    C156    C    0.02877   0.55576   0.40082   1.000
    C157    C    0.52881   0.55577   0.40083   1.000
    C158    C    0.01653   0.87236   0.39306   1.000
    C159    C    0.51654   0.87237   0.39307   1.000
    C160    C    0.07917   0.50664   0.37306   1.000
    C161    C    0.57921   0.50665   0.37308   1.000
    C162    C    0.49702   0.53778   0.44941   1.000
    C163    C    0.99701   0.53777   0.44939   1.000
    C164    C    0.09515   0.44118   0.39260   1.000
    C165    C    0.59520   0.44118   0.39262   1.000
    C166    C    0.02206   0.93303   0.42083   1.000
    C167    C    0.52204   0.93304   0.42083   1.000
    C168    C    0.50976   0.47148   0.46813   1.000
    C169    C    0.00000   0.47147   0.46811   1.000
    C170    C    0.05793   0.42230   0.43966   1.000
    C171    C    0.55798   0.42231   0.43968   1.000
    C172    C    0.28873   0.37411   0.99447   1.000
    C173    C    0.78882   0.37412   0.99446   1.000
    C174    C    0.29223   0.31305   0.96680   1.000
    C175    C    0.79226   0.31305   0.96680   1.000
    C176    C    0.32895   0.18755   0.75079   1.000
    C177    C    0.82896   0.18755   0.75079   1.000
    C178    C    0.38856   0.18249   0.64857   1.000
    C179    C    0.88857   0.18248   0.64857   1.000
    C180    C    0.40014   0.12536   0.68050   1.000
    C181    C    0.90015   0.12535   0.68050   1.000
    C182    C    0.26599   0.31121   0.91531   1.000
    C183    C    0.76600   0.31121   0.91532   1.000
    C184    C    0.34803   0.24225   0.66839   1.000
    C185    C    0.84805   0.24224   0.66839   1.000
    C186    C    0.25655   0.43495   0.97166   1.000
    C187    C    0.75667   0.43496   0.97166   1.000
    C188    C    0.22121   0.05576   0.90082   1.000
    C189    C    0.72123   0.05576   0.90080   1.000
    C190    C    0.23345   0.37236   0.89306   1.000
    C191    C    0.73346   0.37236   0.89307   1.000
    C192    C    0.17081   0.00664   0.87306   1.000
    C193    C    0.67082   0.00663   0.87306   1.000
    C194    C    0.25302   0.03777   0.94939   1.000
    C195    C    0.75303   0.03776   0.94939   1.000
    C196    C    0.15482   0.94118   0.89260   1.000
    C197    C    0.65484   0.94118   0.89260   1.000
    C198    C    0.22792   0.43303   0.92083   1.000
    C199    C    0.72798   0.43304   0.92083   1.000
    C200    C    0.24028   0.97148   0.96811   1.000
    C201    C    0.74030   0.97148   0.96811   1.000
    C202    C    0.19206   0.92231   0.93966   1.000
    C203    C    0.69207   0.92231   0.93966   1.000
    C204    C    0.21117   0.62590   0.49446   1.000
    C205    C    0.71145   0.62591   0.49448   1.000
    C206    C    0.20774   0.68698   0.46680   1.000
    C207    C    0.70781   0.68695   0.46680   1.000
    C208    C    0.17104   0.81246   0.25079   1.000
    C209    C    0.67105   0.81247   0.25079   1.000
    C210    C    0.11144   0.81753   0.14857   1.000
    C211    C    0.61145   0.81753   0.14857   1.000
    C212    C    0.12899   0.87206   0.23073   1.000
    C213    C    0.62900   0.87206   0.23072   1.000
    C214    C    0.18134   0.75525   0.21862   1.000
    C215    C    0.68135   0.75525   0.21862   1.000
    C216    C    0.09986   0.87466   0.18050   1.000
    C217    C    0.59987   0.87466   0.18049   1.000
    C218    C    0.23400   0.68881   0.41532   1.000
    C219    C    0.73400   0.68880   0.41531   1.000
    C220    C    0.15196   0.75777   0.16839   1.000
    C221    C    0.65198   0.75777   0.16839   1.000
    C222    C    0.24334   0.56506   0.47166   1.000
    C223    C    0.74373   0.56509   0.47168   1.000
    C224    C    0.27877   0.94426   0.40082   1.000
    C225    C    0.77879   0.94425   0.40082   1.000
    C226    C    0.26654   0.62766   0.39307   1.000
    C227    C    0.76654   0.62765   0.39304   1.000
    C228    C    0.32918   0.99339   0.37300   1.000
    C229    C    0.82919   0.99338   0.37307   1.000
    C230    C    0.24698   0.96226   0.44900   1.000
    C231    C    0.74700   0.96225   0.44940   1.000
    C232    C    0.34516   0.05884   0.39261   1.000
    C233    C    0.84518   0.05883   0.39261   1.000
    C234    C    0.27202   0.56698   0.42083   1.000
    C235    C    0.77217   0.56700   0.42082   1.000
    C236    C    0.25971   0.02854   0.46810   1.000
    C237    C    0.75973   0.02853   0.46812   1.000
    C238    C    0.30793   0.07771   0.43966   1.000
    C239    C    0.80795   0.07770   0.43967   1.000
loop_
    _geom_bond_atom_site_label_1
    _geom_bond_atom_site_label_2
    _geom_bond_distance
    _geom_bond_site_symmetry_2
    _ccdc_geom_bond_type
    H73    C201      1.08879  1_554   S
    H72    C200      1.08881  1_554   S
    H22    C134      1.08867  1_454   S
    H23    C135      1.08921  1_554   S
    H49    C173      1.08957  1_554   S
    H0     C102      1.08930  1_554   S
    H1     C103      1.08957  1_554   S
    H48    C172      1.08947  1_554   S
    H34    C152      1.08209      .   S
    H35    C153      1.08815      .   S
    H84    C220      1.08812      .   S
    H85    C221      1.08814      .   S
    C68    C153      1.40121      .   S
    C68    C149      1.40174      .   S
    C210   C220      1.40124      .   S
    C210   C216      1.40188      .   S
    C211   C221      1.40123      .   S
    C211   C217      1.40174      .   S
    C144   C152      1.39736      .   S
    C144   C148      1.40170      .   S
    H83    C217      1.08936      .   S
    H82    C216      1.08947      .   S
    H33    C149      1.08936      .   S
    H32    C148      1.08938      .   S
    C152   C146      1.40083      .   S
    C153   C147      1.39104      .   S
    C220   C214      1.39104      .   S
    C221   C215      1.39103      .   S
    C149   C145      1.38948      .   S
    C217   C213      1.38997      .   S
    C148   C69       1.39000      .   S
    C216   C212      1.38998      .   S
    C146   H30       1.08937      .   S
    C146   C142      1.40491      .   S
    C147   H31       1.08935      .   S
    C147   C143      1.40494      .   S
    C214   H80       1.08938      .   S
    C214   C208      1.40491      .   S
    C215   H81       1.08935      .   S
    C215   C209      1.40494      .   S
    C145   C143      1.41070      .   S
    C145   H29       1.09074      .   S
    C213   C209      1.41051      .   S
    C213   H79       1.09041      .   S
    C69    C142      1.41041      .   S
    C69    H28       1.08731      .   S
    C212   C208      1.41041      .   S
    C212   H78       1.09026      .   S
    H38    C160      1.09045      .   S
    H88    C228      1.08880      .   S
    H39    C161      1.09059      .   S
    H89    C229      1.09044      .   S
    H87    C227      1.08888      .   S
    H36    C158      1.08885      .   S
    H86    C226      1.08899      .   S
    H37    C159      1.08892      .   S
    H42    C164      1.09109      .   S
    H97    C233      1.09001      .   S
    H96    C232      1.09003      .   S
    H43    C165      1.08997      .   S
    C228   C232      1.39080  1_565   S
    C228   C224      1.40744      .   S
    C160   C164      1.39033      .   S
    C160   C156      1.40660      .   S
    C229   C233      1.39012  1_565   S
    C229   C225      1.40649      .   S
    C161   C165      1.39029      .   S
    C161   C157      1.40651      .   S
    C164   C170      1.40100      .   S
    C232   C238      1.40080      .   S
    C233   C239      1.40103      .   S
    C165   C171      1.40095      .   S
    C227   C219      1.40553      .   S
    C227   C235      1.38858      .   S
    C158   C151      1.40544  1_455   S
    C158   C166      1.38853      .   S
    C159   C150      1.40547      .   S
    C159   C167      1.38842      .   S
    C226   C218      1.40547      .   S
    C226   C234      1.38845      .   S
    C224   C230      1.39487      .   S
    C225   C231      1.40448      .   S
    C156   C163      1.40409  1_455   S
    C157   C162      1.40441      .   S
    H99    C235      1.08831      .   S
    H44    C166      1.08825      .   S
    H98    C234      1.08818      .   S
    H45    C167      1.08818      .   S
    C219   C207      1.40912      .   S
    C150   C140      1.40904      .   S
    C151   C141      1.40900      .   S
    C218   C206      1.40910      .   S
    C235   C223      1.40244      .   S
    C167   C154      1.40283      .   S
    C234   C222      1.40272      .   S
    C166   C155      1.40255  1_455   S
    C170   C169      1.47612      .   S
    C238   C236      1.40055      .   S
    C239   C237      1.40067      .   S
    C171   C168      1.40068      .   S
    C230   C236      1.39363  1_565   S
    C230   H94       1.09529      .   S
    C163   C169      1.37862  1_655   S
    C163   H41       1.08973      .   S
    C231   C237      1.39005  1_565   S
    C231   H95       1.08965      .   S
    C162   C168      1.39024      .   S
    C162   H40       1.08886      .   S
    C207   H77       1.09080      .   S
    C207   C205      1.39219      .   S
    C141   H27       1.09089      .   S
    C141   C139      1.39226      .   S
    C140   H26       1.09089      .   S
    C140   C138      1.39232      .   S
    C206   H76       1.09087      .   S
    C206   C204      1.39225      .   S
    C236   H100      1.08917      .   S
    C169   H47       1.04334  1_455   S
    C237   H101      1.08877      .   S
    C168   H46       1.08887      .   S
    C222   C204      1.40465      .   S
    C154   C138      1.40465      .   S
    C155   C139      1.40466      .   S
    C223   C205      1.40475      .   S
    C204   H74       1.08954      .   S
    C138   H24       1.08822      .   S
    C139   H25       1.08942      .   S
    C205   H75       1.08953      .   S
    H58    C184      1.08859      .   S
    H11    C119      1.08860      .   S
    H59    C185      1.08826      .   S
    H10    C118      1.08814      .   S
    C178   C184      1.40126      .   S
    C178   C180      1.40184      .   S
    C108   C118      1.40122      .   S
    C108   C114      1.39402      .   S
    C109   C119      1.40129      .   S
    C109   C115      1.40180      .   S
    C179   C185      1.40128      .   S
    C179   C181      1.40182      .   S
    H8     C114      1.08474      .   S
    H56    C180      1.08949      .   S
    H9     C115      1.08943      .   S
    H57    C181      1.08940      .   S
    C118   C112      1.39108      .   S
    C119   C113      1.39084      .   S
    C185   C93       1.39083      .   S
    C184   C92       1.39082      .   S
    C114   C110      1.40231      .   S
    C115   C111      1.39005      .   S
    C181   C91       1.39002      .   S
    C180   C90       1.38926      .   S
    C93    H55       1.08941      .   S
    C93    C177      1.40501      .   S
    C92    H54       1.08938      .   S
    C92    C176      1.40506      .   S
    C113   H7        1.08939      .   S
    C113   C107      1.40503      .   S
    C112   H6        1.08936      .   S
    C112   C106      1.40494      .   S
    C90    C176      1.41074      .   S
    C90    H52       1.09070      .   S
    C110   C106      1.41053      .   S
    C110   H4        1.09044      .   S
    C91    C177      1.41047      .   S
    C91    H53       1.09039      .   S
    C111   C107      1.41043      .   S
    C111   H5        1.09025      .   S
    H14    C126      1.09043      .   S
    H62    C192      1.09047      .   S
    H15    C127      1.09047      .   S
    H63    C193      1.09048      .   S
    H60    C190      1.08911      .   S
    H61    C191      1.08898      .   S
    H13    C125      1.08895      .   S
    H12    C124      1.08898      .   S
    H19    C131      1.09001      .   S
    H18    C130      1.09001      .   S
    H66    C196      1.08989      .   S
    H67    C197      1.08988      .   S
    C192   C196      1.39012  1_545   S
    C192   C188      1.40662      .   S
    C127   C131      1.39032      .   S
    C127   C123      1.40645      .   S
    C126   C130      1.39040      .   S
    C126   C122      1.40662      .   S
    C193   C197      1.39012  1_545   S
    C193   C189      1.40635      .   S
    C131   C137      1.40099      .   S
    C197   C203      1.40103      .   S
    C196   C202      1.40102      .   S
    C130   C136      1.40075      .   S
    C190   C182      1.40543      .   S
    C190   C198      1.38855      .   S
    C191   C183      1.40547      .   S
    C191   C199      1.38845      .   S
    C124   C117      1.40547      .   S
    C124   C132      1.38845      .   S
    C125   C116      1.40537  1_655   S
    C125   C133      1.38844      .   S
    C189   C195      1.40476      .   S
    C123   C128      1.40438  1_655   S
    C188   C194      1.40428      .   S
    C122   C129      1.40424      .   S
    H20    C132      1.08873      .   S
    H71    C199      1.08830      .   S
    H70    C198      1.08827      .   S
    H21    C133      1.08828      .   S
    C182   C174      1.40927      .   S
    C183   C175      1.40910      .   S
    C116   C104      1.40908      .   S
    C117   C105      1.40909      .   S
    C133   C120      1.40258  1_655   S
    C198   C186      1.40243      .   S
    C132   C121      1.40271      .   S
    C199   C187      1.40271      .   S
    C137   C134      1.40056      .   S
    C136   C135      1.40055      .   S
    C203   C201      1.40071      .   S
    C202   C200      1.40071      .   S
    C129   C135      1.39015      .   S
    C129   H17       1.08907      .   S
    C128   C134      1.39025  1_455   S
    C128   H16       1.08959      .   S
    C195   C201      1.39005  1_545   S
    C195   H65       1.08962      .   S
    C194   C200      1.39005  1_545   S
    C194   H64       1.08961      .   S
    C174   H50       1.09009      .   S
    C174   C172      1.39227      .   S
    C175   H51       1.09087      .   S
    C175   C173      1.39225      .   S
    C105   H3        1.09086      .   S
    C105   C103      1.39225      .   S
    C104   H2        1.09088      .   S
    C104   C102      1.39236      .   S
    C186   C172      1.40476      .   S
    C187   C173      1.40464      .   S
    C121   C103      1.40464      .   S
    C120   C102      1.40475      .   S
