# CIF file generated by openbabel 2.4.90, see http://openbabel.sf.net
data_I
_chemical_name_common ''
_cell_length_a 14.51
_cell_length_b 19.408
_cell_length_c 26.343
_cell_angle_alpha 90
_cell_angle_beta 90.001
_cell_angle_gamma 90.002
_space_group_name_H-M_alt 'P 1'
_space_group_name_Hall 'P 1'
loop_
    _symmetry_equiv_pos_as_xyz
    x,y,z
loop_
    _atom_site_label
    _atom_site_type_symbol
    _atom_site_fract_x
    _atom_site_fract_y
    _atom_site_fract_z
    _atom_site_occupancy
    H0      H    0.47735   0.31816   0.94699   1.000
    H1      H    0.97737   0.31817   0.94699   1.000
    H2      H    0.01585   0.42021   0.80423   1.000
    H3      H    0.51585   0.42021   0.80423   1.000
    H4      H    0.07057   0.20304   0.81722   1.000
    H5      H    0.57058   0.20304   0.81722   1.000
    H6      H    0.02262   0.68186   0.44000   1.000
    H7      H    0.52265   0.68187   0.44700   1.000
    H8      H    0.48415   0.57981   0.30424   1.000
    H9      H    0.98415   0.57982   0.30423   1.000
    H10     H    0.42942   0.79698   0.31722   1.000
    H11     H    0.92942   0.79698   0.31722   1.000
    H12     H    0.22736   0.18186   0.94699   1.000
    H13     H    0.72737   0.18186   0.94699   1.000
    H14     H    0.26586   0.07981   0.80423   1.000
    H15     H    0.76587   0.07981   0.80423   1.000
    H16     H    0.32057   0.29698   0.81722   1.000
    H17     H    0.82058   0.29698   0.81722   1.000
    C18     C    0.50214   0.68366   0.40728   1.000
    C19     C    0.00000   0.68366   0.40728   1.000
    H20     H    0.27263   0.81816   0.44700   1.000
    H21     H    0.77263   0.81815   0.44000   1.000
    H22     H    0.23413   0.92021   0.30423   1.000
    H23     H    0.73415   0.92021   0.30423   1.000
    H24     H    0.17942   0.70304   0.31722   1.000
    H25     H    0.67941   0.70304   0.31721   1.000
    C26     C    0.26792   0.12678   0.82683   1.000
    C27     C    0.04676   0.31152   0.80411   1.000
    C28     C    0.54677   0.31153   0.80411   1.000
    C29     C    0.99785   0.31637   0.90720   1.000
    C30     C    0.49786   0.31637   0.90728   1.000
    C31     C    0.01791   0.37324   0.82683   1.000
    C32     C    0.51792   0.37325   0.82683   1.000
    C33     C    0.49474   0.37687   0.87832   1.000
    C34     C    0.99476   0.37687   0.87832   1.000
    C35     C    0.04653   0.25133   0.83365   1.000
    C36     C    0.54654   0.25133   0.83365   1.000
    C37     C    0.02077   0.25300   0.88509   1.000
    C38     C    0.52078   0.25300   0.88509   1.000
    C39     C    0.45323   0.68849   0.30410   1.000
    C40     C    0.95323   0.68850   0.30411   1.000
    C41     C    0.48208   0.62677   0.32684   1.000
    C42     C    0.98209   0.62678   0.32683   1.000
    C43     C    0.00524   0.62316   0.37832   1.000
    C44     C    0.50526   0.62316   0.37833   1.000
    C45     C    0.45346   0.74869   0.33366   1.000
    C46     C    0.95346   0.74869   0.33365   1.000
    C47     C    0.47921   0.74702   0.38510   1.000
    C48     C    0.97922   0.74702   0.38509   1.000
    C49     C    0.29677   0.18850   0.80411   1.000
    C50     C    0.79678   0.18850   0.80411   1.000
    C51     C    0.24787   0.18365   0.90727   1.000
    C52     C    0.74787   0.18365   0.90728   1.000
    C53     C    0.76793   0.12678   0.82683   1.000
    C54     C    0.24475   0.12316   0.87832   1.000
    C55     C    0.74475   0.12316   0.87832   1.000
    C56     C    0.29654   0.24869   0.83365   1.000
    C57     C    0.79654   0.24869   0.83365   1.000
    C58     C    0.27078   0.24703   0.88509   1.000
    C59     C    0.77078   0.24702   0.88509   1.000
    C60     C    0.20322   0.81153   0.30411   1.000
    C61     C    0.70322   0.81153   0.30411   1.000
    C62     C    0.25213   0.81637   0.40728   1.000
    C63     C    0.75212   0.81636   0.40728   1.000
    C64     C    0.23207   0.87325   0.32683   1.000
    C65     C    0.73208   0.87324   0.32680   1.000
    C66     C    0.25525   0.87687   0.37832   1.000
    C67     C    0.75525   0.87686   0.37830   1.000
    C68     C    0.20345   0.75133   0.33365   1.000
    C69     C    0.70344   0.75133   0.33365   1.000
    C70     C    0.22921   0.75300   0.38500   1.000
    C71     C    0.72920   0.75299   0.38509   1.000
loop_
    _geom_bond_atom_site_label_1
    _geom_bond_atom_site_label_2
    _geom_bond_distance
    _geom_bond_site_symmetry_2
    _ccdc_geom_bond_type
    C39    C41       1.40320      .   S
    C39    C45       1.40402      .   S
    C40    C42       1.40299      .   S
    C40    C46       1.40369      .   S
    C61    C65       1.40261      .   S
    C61    C69       1.40373      .   S
    C60    C64       1.40297      .   S
    C60    C68       1.40371      .   S
    H22    C64       1.08908      .   S
    H23    C65       1.08867      .   S
    H9     C42       1.08907      .   S
    H8     C41       1.08908      .   S
    H25    C69       1.08972      .   S
    H24    C68       1.08966      .   S
    H10    C45       1.08976      .   S
    H11    C46       1.08966      .   S
    C65    C67       1.39947      .   S
    C42    C43       1.39915  1_655   S
    C64    C66       1.39922      .   S
    C41    C44       1.39923      .   S
    C68    C70       1.40375      .   S
    C69    C71       1.40602      .   S
    C46    C48       1.40604      .   S
    C45    C47       1.40603      .   S
    C67    C63       1.40128      .   S
    C43    C19       1.40227      .   S
    C66    C62       1.40094      .   S
    C44    C18       1.40083      .   S
    C70    C62       1.40277      .   S
    C48    C19       1.39473  1_655   S
    C71    C63       1.40174      .   S
    C47    C18       1.40163      .   S
    C63    H21       0.91252      .   S
    C18    H7        1.08839      .   S
    C62    H20       1.08838      .   S
    C19    H6        0.92298      .   S
    C50    C53       1.40298      .   S
    C50    C57       1.40371      .   S
    C28    C32       1.40299      .   S
    C28    C36       1.40371      .   S
    C27    C31       1.40302      .   S
    C27    C35       1.40368      .   S
    C49    C26       1.40297      .   S
    C49    C56       1.40373      .   S
    H15    C53       1.08908      .   S
    H14    C26       1.08910      .   S
    H3     C32       1.08908      .   S
    H2     C31       1.08906      .   S
    H17    C57       1.08967      .   S
    H5     C36       1.08967      .   S
    H4     C35       1.08968      .   S
    H16    C56       1.08964      .   S
    C32    C33       1.39923      .   S
    C31    C34       1.39917  1_455   S
    C26    C54       1.39923      .   S
    C53    C55       1.39923      .   S
    C36    C38       1.40606      .   S
    C35    C37       1.40607      .   S
    C57    C59       1.40606      .   S
    C56    C58       1.40606      .   S
    C34    C29       1.39977      .   S
    C33    C30       1.40094      .   S
    C54    C51       1.40081      .   S
    C55    C52       1.40094      .   S
    C58    C51       1.40166      .   S
    C59    C52       1.40177      .   S
    C37    C29       1.40090  1_455   S
    C38    C30       1.40178      .   S
    C29    H1        1.09008      .   S
    C51    H12       1.08839      .   S
    C52    H13       1.08814      .   S
    C30    H0        1.08814      .   S
