# CIF file generated by openbabel 2.4.90, see http://openbabel.sf.net
data_I
_chemical_name_common ''
_cell_length_a 14.51
_cell_length_b 19.408
_cell_length_c 26.343
_cell_angle_alpha 90
_cell_angle_beta 90.001
_cell_angle_gamma 90.002
_space_group_name_H-M_alt 'P 1'
_space_group_name_Hall 'P 1'
loop_
    _symmetry_equiv_pos_as_xyz
    x,y,z
loop_
    _atom_site_label
    _atom_site_type_symbol
    _atom_site_fract_x
    _atom_site_fract_y
    _atom_site_fract_z
    _atom_site_occupancy
    C0      C    0.17391   0.31902   0.59525   1.000
    C1      C    0.67397   0.31904   0.59525   1.000
    C2      C    0.00247   0.99830   0.99889   1.000
    C3      C    0.50252   0.99829   0.99888   1.000
    C4      C    0.43592   0.65062   0.95764   1.000
    C5      C    0.93593   0.65063   0.95764   1.000
    C6      C    0.32607   0.68099   0.09525   1.000
    C7      C    0.82610   0.68100   0.09525   1.000
    C8      C    0.49757   0.00172   0.49890   1.000
    C9      C    0.99773   0.00169   0.49891   1.000
    C10     C    0.06406   0.34940   0.45764   1.000
    C11     C    0.56408   0.34940   0.45765   1.000
    C12     C    0.42392   0.18099   0.59525   1.000
    C13     C    0.92394   0.18098   0.59525   1.000
    C14     C    0.25232   0.50171   0.99891   1.000
    C15     C    0.75252   0.50174   0.99888   1.000
    C16     C    0.18592   0.84941   0.95764   1.000
    C17     C    0.68593   0.84941   0.95764   1.000
    C18     C    0.07608   0.81903   0.09525   1.000
    C19     C    0.57610   0.81902   0.09525   1.000
    C20     C    0.24748   0.49828   0.49888   1.000
    C21     C    0.74826   0.49838   0.49890   1.000
    C22     C    0.31407   0.15062   0.45764   1.000
    C23     C    0.81408   0.15061   0.45764   1.000
