# CIF file generated by openbabel 2.4.90, see http://openbabel.sf.net
data_I
_chemical_name_common ''
_cell_length_a 14.51
_cell_length_b 19.408
_cell_length_c 26.343
_cell_angle_alpha 90
_cell_angle_beta 90.001
_cell_angle_gamma 90.002
_space_group_name_H-M_alt 'P 1'
_space_group_name_Hall 'P 1'
loop_
    _symmetry_equiv_pos_as_xyz
    x,y,z
loop_
    _atom_site_label
    _atom_site_type_symbol
    _atom_site_fract_x
    _atom_site_fract_y
    _atom_site_fract_z
    _atom_site_occupancy
    Zr0     Zr   0.19183   0.69249   0.99860   1.000
    Zr1     Zr   0.69184   0.69248   0.99860   1.000
    Zr2     Zr   0.30816   0.30754   0.49861   1.000
    Zr3     Zr   0.80816   0.30751   0.49860   1.000
    Zr4     Zr   0.44183   0.80754   0.99860   1.000
    Zr5     Zr   0.94185   0.80755   0.99860   1.000
    Zr6     Zr   0.05815   0.19248   0.49860   1.000
    Zr7     Zr   0.55816   0.19248   0.49861   1.000
    N8      N    0.72905   0.81374   0.35519   1.000
    N9      N    0.27093   0.18627   0.85597   1.000
    N10     N    0.02093   0.31375   0.85596   1.000
    N11     N    0.97883   0.68627   0.35519   1.000
    N12     N    0.22906   0.81375   0.35596   1.000
    N13     N    0.77094   0.18627   0.85597   1.000
    N14     N    0.47907   0.68627   0.35597   1.000
    N15     N    0.52093   0.31375   0.85597   1.000
    C16     C    0.98834   0.02673   0.52087   1.000
    O17     O    0.99040   0.97374   0.49271   1.000
    O18     O    0.01750   0.07477   0.50511   1.000
    C19     C    0.73909   0.47338   0.52096   1.000
    O20     O    0.74090   0.52633   0.49276   1.000
    O21     O    0.76788   0.42527   0.50513   1.000
    C22     C    0.68541   0.31916   0.58091   1.000
    O23     O    0.65920   0.31787   0.62081   1.000
    O24     O    0.64734   0.27449   0.55678   1.000
    C25     C    0.81463   0.17053   0.46232   1.000
    O26     O    0.73268   0.17715   0.47593   1.000
    O27     O    0.89347   0.17987   0.46803   1.000
    O28     O    0.80879   0.11653   0.44851   1.000
    C29     C    0.31462   0.17054   0.46232   1.000
    O30     O    0.23267   0.17716   0.47592   1.000
    O31     O    0.30878   0.11654   0.44849   1.000
    O32     O    0.39347   0.17988   0.46803   1.000
    C33     C    0.48813   0.02677   0.52084   1.000
    O34     O    0.49026   0.97377   0.49269   1.000
    O35     O    0.51740   0.07479   0.50509   1.000
    C36     C    0.23801   0.47322   0.52080   1.000
    O37     O    0.26733   0.42522   0.50508   1.000
    O38     O    0.24018   0.52623   0.49267   1.000
    C39     C    0.56463   0.32947   0.46233   1.000
    O40     O    0.48268   0.32286   0.47593   1.000
    O41     O    0.55880   0.38348   0.44851   1.000
    O42     O    0.64348   0.32013   0.46803   1.000
    C43     C    0.43535   0.18086   0.58091   1.000
    O44     O    0.40915   0.18215   0.62080   1.000
    O45     O    0.39730   0.22554   0.55678   1.000
    C46     C    0.18533   0.31915   0.58090   1.000
    O47     O    0.15914   0.31786   0.62079   1.000
    O48     O    0.14729   0.27447   0.55677   1.000
    C49     C    0.93538   0.18085   0.58091   1.000
    O50     O    0.90918   0.18215   0.62080   1.000
    O51     O    0.89732   0.22552   0.55677   1.000
    C52     C    0.06462   0.32947   0.46232   1.000
    O53     O    0.05853   0.38348   0.44850   1.000
    O54     O    0.14347   0.32014   0.46803   1.000
    O55     O    0.98268   0.32285   0.47592   1.000
    C56     C    0.81467   0.68087   0.08090   1.000
    O57     O    0.84086   0.68216   0.12080   1.000
    O58     O    0.85271   0.72555   0.05677   1.000
    C59     C    0.06465   0.81916   0.08091   1.000
    O60     O    0.09084   0.81786   0.12080   1.000
    O61     O    0.10269   0.77448   0.05677   1.000
    C62     C    0.31464   0.68085   0.08091   1.000
    O63     O    0.35268   0.72554   0.05677   1.000
    O64     O    0.34083   0.68215   0.12079   1.000
    C65     C    0.01194   0.97324   0.02082   1.000
    O66     O    0.00978   0.02625   0.99269   1.000
    O67     O    0.98264   0.92523   0.00509   1.000
    C68     C    0.26172   0.52674   0.02086   1.000
    O69     O    0.23252   0.57478   0.00510   1.000
    O70     O    0.25963   0.47375   0.99271   1.000
    C71     C    0.51199   0.97323   0.02082   1.000
    O72     O    0.48266   0.92523   0.00508   1.000
    O73     O    0.50982   0.02624   0.99268   1.000
    C74     C    0.56467   0.81915   0.08090   1.000
    O75     O    0.59086   0.81786   0.12080   1.000
    O76     O    0.60270   0.77448   0.05677   1.000
    C77     C    0.18536   0.82948   0.96232   1.000
    O78     O    0.19121   0.88349   0.94850   1.000
    O79     O    0.10652   0.82015   0.96803   1.000
    O80     O    0.26731   0.82286   0.97592   1.000
    C81     C    0.68537   0.82948   0.96232   1.000
    O82     O    0.69122   0.88348   0.94850   1.000
    O83     O    0.60652   0.82015   0.96803   1.000
    O84     O    0.76732   0.82286   0.97592   1.000
    C85     C    0.76200   0.52680   0.02079   1.000
    O86     O    0.75982   0.47379   0.99267   1.000
    O87     O    0.73266   0.57480   0.00507   1.000
    C88     C    0.93537   0.67055   0.96231   1.000
    O89     O    0.94122   0.61655   0.94849   1.000
    O90     O    0.01731   0.67717   0.97590   1.000
    O91     O    0.85652   0.67988   0.96802   1.000
    C92     C    0.43536   0.67055   0.96232   1.000
    O93     O    0.35651   0.67988   0.96803   1.000
    O94     O    0.51731   0.67717   0.97592   1.000
    O95     O    0.44121   0.61655   0.94850   1.000
    O96     O    0.93692   0.70729   0.97196   1.000
    O97     O    0.03252   0.81627   0.05854   1.000
    O98     O    0.81308   0.20727   0.47198   1.000
    O99     O    0.28250   0.68375   0.05854   1.000
    O100    O    0.43691   0.70729   0.97198   1.000
    O101    O    0.53253   0.81627   0.05853   1.000
    O102    O    0.68692   0.79274   0.97198   1.000
    O103    O    0.71753   0.31626   0.55854   1.000
    O104    O    0.46748   0.18375   0.55854   1.000
    O105    O    0.31307   0.20728   0.47198   1.000
    O106    O    0.18691   0.79274   0.97198   1.000
    O107    O    0.56308   0.29273   0.47198   1.000
    O108    O    0.06307   0.29273   0.47198   1.000
    O109    O    0.96750   0.18374   0.55854   1.000
    O110    O    0.78253   0.68375   0.05853   1.000
    O111    O    0.21747   0.31627   0.55854   1.000
loop_
    _geom_bond_atom_site_label_1
    _geom_bond_atom_site_label_2
    _geom_bond_distance
    _geom_bond_site_symmetry_2
    _ccdc_geom_bond_type
    C16    O17       1.26833  1_545   S
    N11    O17       6.65430      .   S
    C16    O18       1.10487  1_655   S
    Zr6    O18       2.36569      .   S
    C19    O20       1.26841      .   S
    N8     O20       6.65429      .   S
    C19    O21       1.10464      .   S
    Zr3    O21       2.36534      .   S
    C22    O23       1.11787      .   S
    N15    O23       6.51220      .   S
    C22    O24       1.20875      .   S
    Zr7    O24       2.56030      .   S
    C25    O26       1.24853      .   S
    Zr7    O26       2.61884      .   S
    C25    O27       1.16805      .   S
    Zr6    O27       2.53327  1_455   S
    C25    O28       1.11273      .   S
    N8     O28       6.47411  1_565   S
    C29    O30       1.24851      .   S
    Zr6    O30       2.61883      .   S
    C29    O31       1.11285      .   S
    N12    O31       6.46631  1_565   S
    C29    O32       1.16811      .   S
    Zr7    O32       2.53348      .   S
    C33    O34       1.26833  1_545   S
    N14    O34       6.64311      .   S
    C33    O35       1.10492      .   S
    Zr7    O35       2.36579      .   S
    C36    O37       1.10477      .   S
    Zr2    O37       2.36567      .   S
    C36    O38       1.26832      .   S
    N12    O38       6.64335      .   S
    C39    O40       1.24850      .   S
    Zr2    O40       2.61881      .   S
    C39    O41       1.11278      .   S
    N14    O41       6.46649      .   S
    C39    O42       1.16809      .   S
    Zr3    O42       2.53343      .   S
    C43    O44       1.11783      .   S
    N9     O44       6.51208      .   S
    C43    O45       1.20862      .   S
    Zr2    O45       2.56004      .   S
    C46    O47       1.11759      .   S
    N10    O47       6.51217      .   S
    C46    O48       1.20857      .   S
    Zr6    O48       2.56000      .   S
    C49    O50       1.11787      .   S
    N13    O50       6.51210      .   S
    C49    O51       1.20864      .   S
    Zr3    O51       2.56013      .   S
    C52    O53       1.11307      .   S
    N11    O53       6.47419  1_655   S
    C52    O54       1.16809      .   S
    Zr2    O54       2.53350      .   S
    C52    O55       1.24842  1_455   S
    Zr3    O55       2.61878      .   S
    C56    O57       1.11787      .   S
    N11    O57       6.49145      .   S
    C56    O58       1.20860      .   S
    Zr5    O58       2.56005  1_556   S
    C59    O60       1.11786      .   S
    N12    O60       6.51175      .   S
    C59    O61       1.20860      .   S
    Zr0    O61       2.56002  1_556   S
    C62    O63       1.20871      .   S
    Zr4    O63       2.56029  1_556   S
    C62    O64       1.11754      .   S
    N14    O64       6.51246      .   S
    C65    O66       1.26839  1_564   S
    N10    O66       6.64335      .   S
    C65    O67       1.10482  1_455   S
    Zr5    O67       2.36565  1_556   S
    C68    O69       1.10500      .   S
    Zr0    O69       2.36583  1_556   S
    C68    O70       1.26839  1_554   S
    N9     O70       6.64316      .   S
    C71    O72       1.10486      .   S
    Zr4    O72       2.36568  1_556   S
    C71    O73       1.26843  1_564   S
    N15    O73       6.64326      .   S
    C74    O75       1.11788      .   S
    N8     O75       6.49232      .   S
    C74    O76       1.20857      .   S
    Zr1    O76       2.55996  1_556   S
    C77    O78       1.11274      .   S
    N9     O78       6.46632  1_545   S
    C77    O79       1.16804      .   S
    Zr5    O79       2.53326  1_655   S
    C77    O80       1.24848      .   S
    Zr4    O80       2.61876      .   S
    C81    O82       1.11275      .   S
    N13    O82       6.46634  1_545   S
    C81    O83       1.16812      .   S
    Zr4    O83       2.53347      .   S
    C81    O84       1.24849      .   S
    Zr5    O84       2.61879      .   S
    C85    O86       1.26826  1_554   S
    N13    O86       6.64317      .   S
    C85    O87       1.10481      .   S
    Zr1    O87       2.36572  1_556   S
    C88    O89       1.11271      .   S
    N10    O89       6.46652  1_455   S
    C88    O90       1.24835  1_655   S
    Zr0    O90       2.61881      .   S
    C88    O91       1.16810      .   S
    Zr1    O91       2.53352      .   S
    C92    O93       1.16811      .   S
    Zr0    O93       2.53347      .   S
    C92    O94       1.24848      .   S
    Zr1    O94       2.61876      .   S
    C92    O95       1.11280      .   S
    N15    O95       6.46650      .   S
    Zr5    O96       2.06968      .   S
    C88    O96       0.75740      .   S
    Zr5    O97       2.06219  1_656   S
    C59    O97       0.75348      .   S
    C25    O98       0.75729      .   S
    Zr3    O98       2.06925      .   S
    C62    O99       0.75351      .   S
    Zr0    O99       2.06229  1_556   S
    Zr4    O100      2.06951      .   S
    C92    O100      0.75737      .   S
    Zr4    O101      2.06234  1_556   S
    C74    O101      0.75354      .   S
    C81    O102      0.75738      .   S
    Zr1    O102      2.06953      .   S
    Zr3    O103      2.06202      .   S
    C22    O103      0.75342      .   S
    C43    O104      0.75346      .   S
    Zr7    O104      2.06213      .   S
    C29    O105      0.75740      .   S
    Zr2    O105      2.06958      .   S
    Zr0    O106      2.06950      .   S
    C77    O106      0.75737      .   S
    C39    O107      0.75736      .   S
    Zr7    O107      2.06947      .   S
    Zr6    O108      2.06951      .   S
    C52    O108      0.75737      .   S
    Zr6    O109      2.06206  1_455   S
    C49    O109      0.75343      .   S
    Zr1    O110      2.06236  1_556   S
    C56    O110      0.75354      .   S
    C46    O111      0.75347      .   S
    Zr2    O111      2.06216      .   S
