# CIF file generated by openbabel 2.4.90, see http://openbabel.sf.net
data_I
_chemical_name_common ''
_cell_length_a 14.51
_cell_length_b 19.408
_cell_length_c 26.343
_cell_angle_alpha 90
_cell_angle_beta 90.001
_cell_angle_gamma 90.002
_space_group_name_H-M_alt 'P 1'
_space_group_name_Hall 'P 1'
loop_
    _symmetry_equiv_pos_as_xyz
    x,y,z
loop_
    _atom_site_label
    _atom_site_type_symbol
    _atom_site_fract_x
    _atom_site_fract_y
    _atom_site_fract_z
    _atom_site_occupancy
    Zr0     Zr   0.19183   0.69249   0.99860   1.000
    Zr1     Zr   0.69184   0.69248   0.99860   1.000
    Zr2     Zr   0.30816   0.30754   0.49861   1.000
    Zr3     Zr   0.80816   0.30751   0.49860   1.000
    Zr4     Zr   0.44183   0.80754   0.99860   1.000
    Zr5     Zr   0.94185   0.80755   0.99860   1.000
    Zr6     Zr   0.05815   0.19248   0.49860   1.000
    Zr7     Zr   0.55816   0.19248   0.49861   1.000
    N8      N    0.72905   0.81374   0.35519   1.000
    N9      N    0.27093   0.18627   0.85597   1.000
    N10     N    0.02093   0.31375   0.85596   1.000
    N11     N    0.97883   0.68627   0.35519   1.000
    N12     N    0.22906   0.81375   0.35596   1.000
    N13     N    0.77094   0.18627   0.85597   1.000
    N14     N    0.47907   0.68627   0.35597   1.000
    N15     N    0.52093   0.31375   0.85597   1.000
    C16     C    0.98834   0.02673   0.52087   1.000
    O17     O    0.99040   0.97374   0.49271   1.000
    O18     O    0.01750   0.07477   0.50511   1.000
    C19     C    0.73909   0.47338   0.52096   1.000
    O20     O    0.74090   0.52633   0.49276   1.000
    O21     O    0.76788   0.42527   0.50513   1.000
    C22     C    0.68541   0.31916   0.58091   1.000
    O23     O    0.65920   0.31787   0.62081   1.000
    O24     O    0.64734   0.27449   0.55678   1.000
    O25     O    0.70984   0.30324   0.55678   1.000
    O26     O    0.72522   0.32928   0.56031   1.000
    C27     C    0.81463   0.17053   0.46232   1.000
    O28     O    0.73268   0.17715   0.47593   1.000
    O29     O    0.79518   0.20591   0.47592   1.000
    O30     O    0.83098   0.20863   0.46803   1.000
    O31     O    0.89347   0.17987   0.46803   1.000
    O32     O    0.80879   0.11653   0.44851   1.000
    C33     C    0.31462   0.17054   0.46232   1.000
    O34     O    0.23267   0.17716   0.47592   1.000
    O35     O    0.29518   0.20593   0.47593   1.000
    O36     O    0.30878   0.11654   0.44849   1.000
    O37     O    0.33097   0.20864   0.46803   1.000
    O38     O    0.39347   0.17988   0.46803   1.000
    C39     C    0.48813   0.02677   0.52084   1.000
    O40     O    0.49026   0.97377   0.49269   1.000
    O41     O    0.51740   0.07479   0.50509   1.000
    C42     C    0.23801   0.47322   0.52080   1.000
    O43     O    0.26733   0.42522   0.50508   1.000
    O44     O    0.24018   0.52623   0.49267   1.000
    C45     C    0.56463   0.32947   0.46233   1.000
    O46     O    0.48268   0.32286   0.47593   1.000
    O47     O    0.54518   0.29409   0.47593   1.000
    O48     O    0.55880   0.38348   0.44851   1.000
    O49     O    0.64348   0.32013   0.46803   1.000
    O50     O    0.58098   0.29138   0.46804   1.000
    C51     C    0.43535   0.18086   0.58091   1.000
    O52     O    0.40915   0.18215   0.62080   1.000
    O53     O    0.47515   0.17072   0.56030   1.000
    O54     O    0.39730   0.22554   0.55678   1.000
    O55     O    0.45980   0.19678   0.55678   1.000
    C56     C    0.18533   0.31915   0.58090   1.000
    O57     O    0.15914   0.31786   0.62079   1.000
    O58     O    0.22514   0.32929   0.56030   1.000
    O59     O    0.14729   0.27447   0.55677   1.000
    O60     O    0.20980   0.30324   0.55677   1.000
    C61     C    0.93538   0.18085   0.58091   1.000
    O62     O    0.90918   0.18215   0.62080   1.000
    O63     O    0.89732   0.22552   0.55677   1.000
    O64     O    0.95982   0.19677   0.55677   1.000
    O65     O    0.97518   0.17072   0.56030   1.000
    C66     C    0.06462   0.32947   0.46232   1.000
    O67     O    0.05853   0.38348   0.44850   1.000
    O68     O    0.14347   0.32014   0.46803   1.000
    O69     O    0.08097   0.29138   0.46803   1.000
    O70     O    0.98268   0.32285   0.47592   1.000
    O71     O    0.04518   0.29409   0.47592   1.000
    C72     C    0.81467   0.68087   0.08090   1.000
    O73     O    0.84086   0.68216   0.12080   1.000
    O74     O    0.85271   0.72555   0.05677   1.000
    O75     O    0.79021   0.69678   0.05677   1.000
    O76     O    0.77486   0.67073   0.06030   1.000
    C77     C    0.06465   0.81916   0.08091   1.000
    O78     O    0.09084   0.81786   0.12080   1.000
    O79     O    0.10269   0.77448   0.05677   1.000
    O80     O    0.04019   0.80324   0.05677   1.000
    O81     O    0.02485   0.82930   0.06030   1.000
    C82     C    0.31464   0.68085   0.08091   1.000
    O83     O    0.35268   0.72554   0.05677   1.000
    O84     O    0.29018   0.69677   0.05677   1.000
    O85     O    0.27483   0.67072   0.06030   1.000
    O86     O    0.34083   0.68215   0.12079   1.000
    C87     C    0.01194   0.97324   0.02082   1.000
    O88     O    0.00978   0.02625   0.99269   1.000
    O89     O    0.98264   0.92523   0.00509   1.000
    C90     C    0.26172   0.52674   0.02086   1.000
    O91     O    0.23252   0.57478   0.00510   1.000
    O92     O    0.25963   0.47375   0.99271   1.000
    C93     C    0.51199   0.97323   0.02082   1.000
    O94     O    0.48266   0.92523   0.00508   1.000
    O95     O    0.50982   0.02624   0.99268   1.000
    C96     C    0.56467   0.81915   0.08090   1.000
    O97     O    0.59086   0.81786   0.12080   1.000
    O98     O    0.60270   0.77448   0.05677   1.000
    O99     O    0.54020   0.80324   0.05677   1.000
    O100    O    0.52486   0.82930   0.06030   1.000
    C101    C    0.18536   0.82948   0.96232   1.000
    O102    O    0.19121   0.88349   0.94850   1.000
    O103    O    0.16901   0.79139   0.96803   1.000
    O104    O    0.10652   0.82015   0.96803   1.000
    O105    O    0.26731   0.82286   0.97592   1.000
    O106    O    0.20481   0.79410   0.97592   1.000
    C107    C    0.68537   0.82948   0.96232   1.000
    O108    O    0.69122   0.88348   0.94850   1.000
    O109    O    0.66902   0.79138   0.96803   1.000
    O110    O    0.60652   0.82015   0.96803   1.000
    O111    O    0.76732   0.82286   0.97592   1.000
    O112    O    0.70482   0.79410   0.97592   1.000
    C113    C    0.76200   0.52680   0.02079   1.000
    O114    O    0.75982   0.47379   0.99267   1.000
    O115    O    0.73266   0.57480   0.00507   1.000
    C116    C    0.93537   0.67055   0.96231   1.000
    O117    O    0.94122   0.61655   0.94849   1.000
    O118    O    0.01731   0.67717   0.97590   1.000
    O119    O    0.95481   0.70594   0.97590   1.000
    O120    O    0.85652   0.67988   0.96802   1.000
    O121    O    0.91902   0.70865   0.96802   1.000
    C122    C    0.43536   0.67055   0.96232   1.000
    O123    O    0.35651   0.67988   0.96803   1.000
    O124    O    0.41901   0.70865   0.96803   1.000
    O125    O    0.51731   0.67717   0.97592   1.000
    O126    O    0.45481   0.70593   0.97592   1.000
    O127    O    0.44121   0.61655   0.94850   1.000
loop_
    _geom_bond_atom_site_label_1
    _geom_bond_atom_site_label_2
    _geom_bond_distance
    _geom_bond_site_symmetry_2
    _ccdc_geom_bond_type
    C16    O17       1.26833  1_545   S
    N11    O17       6.65430      .   S
    C16    O18       1.10487  1_655   S
    Zr6    O18       2.36569      .   S
    C19    O20       1.26841      .   S
    N8     O20       6.65429      .   S
    C19    O21       1.10464      .   S
    Zr3    O21       2.36534      .   S
    C22    O23       1.11787      .   S
    N15    O23       6.51220      .   S
    C22    O24       1.20875      .   S
    Zr7    O24       2.56030      .   S
    C22    O25       0.79082      .   S
    Zr3    O25       2.09547      .   S
    C22    O26       0.81660      .   S
    Zr3    O26       2.06635      .   S
    C27    O28       1.24853      .   S
    Zr7    O28       2.61884      .   S
    C27    O29       0.82428      .   S
    Zr3    O29       2.06890      .   S
    C27    O30       0.79085      .   S
    Zr3    O30       2.10741      .   S
    C27    O31       1.16805      .   S
    Zr6    O31       2.53327  1_455   S
    C27    O32       1.11273      .   S
    N8     O32       6.47411  1_565   S
    C33    O34       1.24851      .   S
    Zr6    O34       2.61883      .   S
    C33    O35       0.82439      .   S
    Zr2    O35       2.06921      .   S
    C33    O36       1.11285      .   S
    N12    O36       6.46631  1_565   S
    C33    O37       0.79093      .   S
    Zr2    O37       2.10776      .   S
    C33    O38       1.16811      .   S
    Zr7    O38       2.53348      .   S
    C39    O40       1.26833  1_545   S
    N14    O40       6.64311      .   S
    C39    O41       1.10492      .   S
    Zr7    O41       2.36579      .   S
    C42    O43       1.10477      .   S
    Zr2    O43       2.36567      .   S
    C42    O44       1.26832      .   S
    N12    O44       6.64335      .   S
    C45    O46       1.24850      .   S
    Zr2    O46       2.61881      .   S
    C45    O47       0.82432      .   S
    Zr7    O47       2.06913      .   S
    C45    O48       1.11278      .   S
    N14    O48       6.46649      .   S
    C45    O49       1.16809      .   S
    Zr3    O49       2.53343      .   S
    C45    O50       0.79093      .   S
    Zr7    O50       2.10760      .   S
    C51    O52       1.11783      .   S
    N9     O52       6.51208      .   S
    C51    O53       0.81664      .   S
    Zr7    O53       2.06645      .   S
    C51    O54       1.20862      .   S
    Zr2    O54       2.56004      .   S
    C51    O55       0.79085      .   S
    Zr7    O55       2.09558      .   S
    C56    O57       1.11759      .   S
    N10    O57       6.51217      .   S
    C56    O58       0.81667      .   S
    Zr2    O58       2.06647      .   S
    C56    O59       1.20857      .   S
    Zr6    O59       2.56000      .   S
    C56    O60       0.79085      .   S
    Zr2    O60       2.09564      .   S
    C61    O62       1.11787      .   S
    N13    O62       6.51210      .   S
    C61    O63       1.20864      .   S
    Zr3    O63       2.56013      .   S
    C61    O64       0.79085      .   S
    Zr6    O64       2.09549  1_455   S
    C61    O65       0.81660      .   S
    Zr6    O65       2.06642  1_455   S
    C66    O67       1.11307      .   S
    N11    O67       6.47419  1_655   S
    C66    O68       1.16809      .   S
    Zr2    O68       2.53350      .   S
    C66    O69       0.79090      .   S
    Zr6    O69       2.10768      .   S
    C66    O70       1.24842  1_455   S
    Zr3    O70       2.61878      .   S
    C66    O71       0.82435      .   S
    Zr6    O71       2.06912      .   S
    C72    O73       1.11787      .   S
    N11    O73       6.49145      .   S
    C72    O74       1.20860      .   S
    Zr5    O74       2.56005  1_556   S
    C72    O75       0.79092      .   S
    Zr1    O75       2.09582  1_556   S
    C72    O76       0.81673      .   S
    Zr1    O76       2.06667  1_556   S
    C77    O78       1.11786      .   S
    N12    O78       6.51175      .   S
    C77    O79       1.20860      .   S
    Zr0    O79       2.56002  1_556   S
    C77    O80       0.79087      .   S
    Zr5    O80       2.09565  1_656   S
    C77    O81       0.81667      .   S
    Zr5    O81       2.06651  1_656   S
    C82    O83       1.20871      .   S
    Zr4    O83       2.56029  1_556   S
    C82    O84       0.79092      .   S
    Zr0    O84       2.09572  1_556   S
    C82    O85       0.81667      .   S
    Zr0    O85       2.06664  1_556   S
    C82    O86       1.11754      .   S
    N14    O86       6.51246      .   S
    C87    O88       1.26839  1_564   S
    N10    O88       6.64335      .   S
    C87    O89       1.10482  1_455   S
    Zr5    O89       2.36565  1_556   S
    C90    O91       1.10500      .   S
    Zr0    O91       2.36583  1_556   S
    C90    O92       1.26839  1_554   S
    N9     O92       6.64316      .   S
    C93    O94       1.10486      .   S
    Zr4    O94       2.36568  1_556   S
    C93    O95       1.26843  1_564   S
    N15    O95       6.64326      .   S
    C96    O97       1.11788      .   S
    N8     O97       6.49232      .   S
    C96    O98       1.20857      .   S
    Zr1    O98       2.55996  1_556   S
    C96    O99       0.79089      .   S
    Zr4    O99       2.09583  1_556   S
    C96    O100      0.81675      .   S
    Zr4    O100      2.06662  1_556   S
    C101   O102      1.11274      .   S
    N9     O102      6.46632  1_545   S
    C101   O103      0.79092      .   S
    Zr0    O103      2.10766      .   S
    C101   O104      1.16804      .   S
    Zr5    O104      2.53326  1_655   S
    C101   O105      1.24848      .   S
    Zr4    O105      2.61876      .   S
    C101   O106      0.82435      .   S
    Zr0    O106      2.06913      .   S
    C107   O108      1.11275      .   S
    N13    O108      6.46634  1_545   S
    C107   O109      0.79092      .   S
    Zr1    O109      2.10770      .   S
    C107   O110      1.16812      .   S
    Zr4    O110      2.53347      .   S
    C107   O111      1.24849      .   S
    Zr5    O111      2.61879      .   S
    C107   O112      0.82437      .   S
    Zr1    O112      2.06916      .   S
    C113   O114      1.26826  1_554   S
    N13    O114      6.64317      .   S
    C113   O115      1.10481      .   S
    Zr1    O115      2.36572  1_556   S
    C116   O117      1.11271      .   S
    N10    O117      6.46652  1_455   S
    C116   O118      1.24835  1_655   S
    Zr0    O118      2.61881      .   S
    C116   O119      0.82431      .   S
    Zr5    O119      2.06932      .   S
    C116   O120      1.16810      .   S
    Zr1    O120      2.53352      .   S
    C116   O121      0.79096      .   S
    Zr5    O121      2.10780      .   S
    C122   O123      1.16811      .   S
    Zr0    O123      2.53347      .   S
    C122   O124      0.79093      .   S
    Zr4    O124      2.10766      .   S
    C122   O125      1.24848      .   S
    Zr1    O125      2.61876      .   S
    C122   O126      0.82435      .   S
    Zr4    O126      2.06915      .   S
    C122   O127      1.11280      .   S
    N15    O127      6.46650      .   S
