# CIF file generated by openbabel 2.4.90, see http://openbabel.sf.net
data_I
_chemical_name_common ''
_cell_length_a 13.69
_cell_length_b 16.701
_cell_length_c 16.701
_cell_angle_alpha 87.613
_cell_angle_beta 78.271
_cell_angle_gamma 78.214
_space_group_name_H-M_alt 'P 1'
_space_group_name_Hall 'P 1'
loop_
    _symmetry_equiv_pos_as_xyz
    x,y,z
loop_
    _atom_site_label
    _atom_site_type_symbol
    _atom_site_fract_x
    _atom_site_fract_y
    _atom_site_fract_z
    _atom_site_occupancy
    Ag0     Ag   0.95660   0.89289   0.38036   1.000
    Ag1     Ag   0.09267   0.60666   0.11965   1.000
    Ag2     Ag   0.59268   0.60666   0.11965   1.000
    Ag3     Ag   0.14647   0.11970   0.89290   1.000
    Ag4     Ag   0.64648   0.11970   0.89290   1.000
    Ag5     Ag   0.15294   0.38039   0.60681   1.000
    Ag6     Ag   0.65295   0.38039   0.60681   1.000
    Ag7     Ag   0.04342   0.10711   0.61961   1.000
    Ag8     Ag   0.54343   0.10711   0.61961   1.000
    Ag9     Ag   0.40735   0.39334   0.88031   1.000
    Ag10    Ag   0.90736   0.39334   0.88031   1.000
    Ag11    Ag   0.35355   0.88030   0.10702   1.000
    Ag12    Ag   0.85356   0.88030   0.10702   1.000
    Ag13    Ag   0.34707   0.61961   0.39316   1.000
    Ag14    Ag   0.84708   0.61961   0.39316   1.000
    H15     H    0.36066   0.77781   0.64022   1.000
    H16     H    0.86067   0.77781   0.64022   1.000
    H17     H    0.29635   0.87308   0.60867   1.000
    H18     H    0.79635   0.87308   0.60867   1.000
    H19     H    0.47639   0.86609   0.63434   1.000
    H20     H    0.97640   0.86609   0.63434   1.000
    H21     H    0.02508   0.79767   0.55067   1.000
    H22     H    0.52509   0.79767   0.55067   1.000
    H23     H    0.32345   0.98675   0.54940   1.000
    H24     H    0.82346   0.98675   0.54940   1.000
    H25     H    0.40879   0.00948   0.60891   1.000
    H26     H    0.90880   0.00948   0.60891   1.000
    H27     H    0.08924   0.94922   0.57294   1.000
    H28     H    0.58925   0.94922   0.57294   1.000
    H29     H    0.13518   0.87929   0.49038   1.000
    H30     H    0.63519   0.87929   0.49038   1.000
    H31     H    0.11138   0.71949   0.39469   1.000
    Ag32    Ag   0.45659   0.89289   0.38036   1.000
    H33     H    0.61139   0.71949   0.39469   1.000
    H34     H    0.18762   0.79580   0.39068   1.000
    H35     H    0.68763   0.79580   0.39068   1.000
    H36     H    0.01674   0.71319   0.29117   1.000
    H37     H    0.51675   0.71319   0.29117   1.000
    H38     H    0.06869   0.72186   0.85986   1.000
    H39     H    0.56869   0.72187   0.85986   1.000
    H40     H    0.03632   0.62659   0.89159   1.000
    H41     H    0.53632   0.62659   0.89150   1.000
    H42     H    0.22561   0.63401   0.86584   1.000
    H43     H    0.72561   0.63401   0.86580   1.000
    H44     H    0.19845   0.70233   0.94958   1.000
    H45     H    0.69846   0.70233   0.94958   1.000
    H46     H    0.09158   0.51262   0.95032   1.000
    H47     H    0.59159   0.51262   0.95030   1.000
    H48     H    0.21786   0.49052   0.89096   1.000
    H49     H    0.71787   0.49052   0.89096   1.000
    H50     H    0.34967   0.55128   0.92723   1.000
    H51     H    0.84968   0.55129   0.92723   1.000
    H52     H    0.31938   0.62107   0.00000   1.000
    H53     H    0.81938   0.62107   0.00000   1.000
    H54     H    0.16819   0.78047   0.10526   1.000
    H55     H    0.66820   0.78048   0.10526   1.000
    H56     H    0.28046   0.70416   0.10937   1.000
    H57     H    0.78047   0.70416   0.10937   1.000
    H58     H    0.01895   0.78676   0.20862   1.000
    H59     H    0.51895   0.78676   0.20862   1.000
    H60     H    0.17990   0.85985   0.77785   1.000
    H61     H    0.67991   0.85985   0.77785   1.000
    H62     H    0.10007   0.89131   0.87314   1.000
    H63     H    0.60007   0.89131   0.87310   1.000
    H64     H    0.29287   0.86577   0.86599   1.000
    H65     H    0.79288   0.86577   0.86599   1.000
    H66     H    0.29974   0.94952   0.79765   1.000
    H67     H    0.79975   0.94952   0.79765   1.000
    H68     H    0.09799   0.95049   0.98690   1.000
    H69     H    0.59800   0.95049   0.98689   1.000
    H70     H    0.21309   0.89103   0.00943   1.000
    H71     H    0.71310   0.89102   0.00943   1.000
    H72     H    0.37538   0.92712   0.94905   1.000
    H73     H    0.87538   0.92712   0.94905   1.000
    H74     H    0.38005   0.00000   0.87920   1.000
    H75     H    0.88006   0.00000   0.87920   1.000
    H76     H    0.30862   0.10529   0.71946   1.000
    H77     H    0.80863   0.10529   0.71946   1.000
    H78     H    0.38286   0.10932   0.79582   1.000
    H79     H    0.88287   0.10932   0.79582   1.000
    H80     H    0.16245   0.20876   0.71310   1.000
    H81     H    0.66246   0.20876   0.71310   1.000
    H82     H    0.99985   0.64027   0.72198   1.000
    H83     H    0.49986   0.64027   0.72198   1.000
    H84     H    0.48298   0.60856   0.62678   1.000
    H85     H    0.98299   0.60856   0.62678   1.000
    H86     H    0.15950   0.63439   0.63378   1.000
    H87     H    0.65951   0.63439   0.63378   1.000
    H88     H    0.17429   0.55071   0.70220   1.000
    H89     H    0.67430   0.55071   0.70222   1.000
    H90     H    0.06685   0.54959   0.51300   1.000
    H91     H    0.56686   0.54959   0.51302   1.000
    H92     H    0.16354   0.60900   0.49044   1.000
    H93     H    0.66354   0.60900   0.49044   1.000
    H94     H    0.31387   0.57287   0.55087   1.000
    H95     H    0.81388   0.57287   0.55087   1.000
    H96     H    0.32498   0.49027   0.62078   1.000
    H97     H    0.82498   0.49027   0.62078   1.000
    H98     H    0.22134   0.39477   0.78039   1.000
    H99     H    0.72135   0.39477   0.78039   1.000
    C100    C    0.57910   0.93478   0.51124   1.000
    C101    C    0.15952   0.75576   0.35429   1.000
    C102    C    0.65953   0.75576   0.35429   1.000
    C103    C    0.06672   0.67734   0.91025   1.000
    H104    H    0.33560   0.39071   0.70416   1.000
    H105    H    0.83561   0.39071   0.70416   1.000
    H106    H    0.12360   0.29133   0.78664   1.000
    H107    H    0.62361   0.29133   0.78664   1.000
    H108    H    0.13936   0.22219   0.35970   1.000
    H109    H    0.63936   0.22219   0.35970   1.000
    H110    H    0.20367   0.12692   0.39130   1.000
    H111    H    0.70368   0.12692   0.39130   1.000
    H112    H    0.02363   0.13391   0.36563   1.000
    H113    H    0.52364   0.13391   0.36563   1.000
    H114    H    0.47494   0.20233   0.44930   1.000
    H115    H    0.97494   0.20233   0.44930   1.000
    H116    H    0.17657   0.01325   0.45057   1.000
    H117    H    0.67658   0.01325   0.45057   1.000
    H118    H    0.09123   0.99052   0.39106   1.000
    H119    H    0.59123   0.99052   0.39106   1.000
    H120    H    0.41078   0.05078   0.42703   1.000
    H121    H    0.91078   0.05078   0.42703   1.000
    H122    H    0.36483   0.12070   0.50959   1.000
    H123    H    0.86484   0.12070   0.50959   1.000
    H124    H    0.38864   0.28051   0.60528   1.000
    H125    H    0.88865   0.28051   0.60528   1.000
    H126    H    0.31240   0.20420   0.60920   1.000
    H127    H    0.81241   0.20420   0.60920   1.000
    H128    H    0.48328   0.28681   0.70880   1.000
    H129    H    0.98328   0.28680   0.70880   1.000
    H130    H    0.43133   0.27813   0.14011   1.000
    H131    H    0.93134   0.27813   0.14011   1.000
    C132    C    0.32540   0.04641   0.00000   1.000
    C133    C    0.82541   0.04641   0.00000   1.000
    C134    C    0.16554   0.01115   0.06528   1.000
    C135    C    0.66554   0.01115   0.06528   1.000
    C136    C    0.16338   0.85429   0.24420   1.000
    H137    H    0.46370   0.37341   0.10838   1.000
    H138    H    0.96371   0.37341   0.10838   1.000
    H139    H    0.27441   0.36599   0.13413   1.000
    H140    H    0.77442   0.36599   0.13413   1.000
    H141    H    0.30157   0.29767   0.05030   1.000
    H142    H    0.80157   0.29767   0.05038   1.000
    H143    H    0.40843   0.48738   0.04965   1.000
    H144    H    0.90844   0.48738   0.04965   1.000
    H145    H    0.28216   0.50948   0.10901   1.000
    H146    H    0.78216   0.50948   0.10901   1.000
    H147    H    0.15035   0.44871   0.07274   1.000
    H148    H    0.65036   0.44871   0.07274   1.000
    H149    H    0.18064   0.37893   0.99005   1.000
    H150    H    0.68065   0.37893   0.99005   1.000
    H151    H    0.33183   0.21952   0.89470   1.000
    H152    H    0.83183   0.21952   0.89470   1.000
    H153    H    0.21956   0.29584   0.89060   1.000
    H154    H    0.71957   0.29584   0.89060   1.000
    H155    H    0.48107   0.21324   0.79135   1.000
    H156    H    0.98108   0.21324   0.79135   1.000
    H157    H    0.32011   0.14015   0.22212   1.000
    H158    H    0.82012   0.14015   0.22212   1.000
    H159    H    0.39995   0.10869   0.12683   1.000
    H160    H    0.89996   0.10869   0.12683   1.000
    H161    H    0.20715   0.13423   0.13398   1.000
    H162    H    0.70715   0.13423   0.13398   1.000
    H163    H    0.20028   0.05048   0.20232   1.000
    H164    H    0.70028   0.05048   0.20232   1.000
    H165    H    0.40202   0.04951   0.01307   1.000
    H166    H    0.90203   0.04951   0.01307   1.000
    H167    H    0.28693   0.10897   0.99050   1.000
    H168    H    0.78694   0.10897   0.99054   1.000
    H169    H    0.12464   0.07288   0.05091   1.000
    H170    H    0.62465   0.07288   0.05091   1.000
    H171    H    0.11997   0.99024   0.12077   1.000
    H172    H    0.61997   0.99024   0.12070   1.000
    H173    H    0.19140   0.89471   0.28051   1.000
    H174    H    0.69141   0.89471   0.28051   1.000
    H175    H    0.11716   0.89067   0.20415   1.000
    H176    H    0.61717   0.89067   0.20415   1.000
    H177    H    0.33757   0.79123   0.28687   1.000
    H178    H    0.83758   0.79123   0.28687   1.000
    H179    H    0.50017   0.35973   0.27799   1.000
    H180    H    0.00000   0.35973   0.27799   1.000
    H181    H    0.01704   0.39144   0.37318   1.000
    H182    H    0.51705   0.39144   0.37318   1.000
    H183    H    0.34052   0.36561   0.36610   1.000
    H184    H    0.84053   0.36561   0.36610   1.000
    H185    H    0.32573   0.44929   0.29775   1.000
    H186    H    0.82573   0.44929   0.29775   1.000
    H187    H    0.43317   0.45041   0.48695   1.000
    H188    H    0.93318   0.45041   0.48695   1.000
    H189    H    0.33648   0.39100   0.50953   1.000
    H190    H    0.83649   0.39100   0.50953   1.000
    H191    H    0.18615   0.42712   0.44910   1.000
    H192    H    0.68615   0.42712   0.44910   1.000
    H193    H    0.17504   0.50972   0.37918   1.000
    H194    H    0.67505   0.50972   0.37918   1.000
    H195    H    0.27868   0.60523   0.21958   1.000
    H196    H    0.77868   0.60523   0.21958   1.000
    H197    H    0.16441   0.60929   0.29581   1.000
    H198    H    0.66442   0.60929   0.29581   1.000
    H199    H    0.37641   0.70867   0.21333   1.000
    H200    H    0.87642   0.70867   0.21333   1.000
    C201    C    0.36140   0.82242   0.58991   1.000
    C202    C    0.86141   0.82242   0.58991   1.000
    C203    C    0.46361   0.84940   0.57440   1.000
    C204    C    0.96362   0.84940   0.57440   1.000
    C205    C    0.40155   0.99504   0.54636   1.000
    C206    C    0.90156   0.99504   0.54636   1.000
    C207    C    0.07909   0.93478   0.51124   1.000
    C208    C    0.56673   0.67735   0.91025   1.000
    C209    C    0.17471   0.65054   0.92579   1.000
    C210    C    0.67472   0.65054   0.92579   1.000
    C211    C    0.17223   0.50469   0.95349   1.000
    C212    C    0.67224   0.50469   0.95349   1.000
    C213    C    0.30164   0.56549   0.98894   1.000
    C214    C    0.80165   0.56549   0.98894   1.000
    C215    C    0.21430   0.74419   0.14570   1.000
    C216    C    0.71431   0.74419   0.14570   1.000
    C217    C    0.15563   0.91016   0.82246   1.000
    C218    C    0.65564   0.91016   0.82246   1.000
    C219    C    0.25018   0.92573   0.84930   1.000
    C220    C    0.75019   0.92573   0.84930   1.000
    C221    C    0.17462   0.95359   0.99510   1.000
    C222    C    0.67463   0.95358   0.99510   1.000
    C223    C    0.33448   0.98884   0.93469   1.000
    C224    C    0.83449   0.98884   0.93469   1.000
    C225    C    0.33663   0.14570   0.75576   1.000
    C226    C    0.83664   0.14571   0.75576   1.000
    C227    C    0.02287   0.58989   0.67745   1.000
    C228    C    0.52288   0.58989   0.67745   1.000
    C229    C    0.13850   0.57443   0.65040   1.000
    C230    C    0.63851   0.57443   0.65040   1.000
    C231    C    0.14909   0.54646   0.50483   1.000
    C232    C    0.64909   0.54646   0.50483   1.000
    C233    C    0.29655   0.51117   0.56527   1.000
    C234    C    0.79656   0.51117   0.56527   1.000
    C235    C    0.28756   0.35435   0.74417   1.000
    C236    C    0.78757   0.35434   0.74417   1.000
    C237    C    0.13862   0.17758   0.41006   1.000
    C238    C    0.63863   0.17758   0.41006   1.000
    C239    C    0.03641   0.15060   0.42557   1.000
    C240    C    0.53641   0.15060   0.42557   1.000
    C241    C    0.09847   0.00000   0.45361   1.000
    C242    C    0.59847   0.00000   0.45361   1.000
    C243    C    0.42092   0.06522   0.48873   1.000
    C244    C    0.92093   0.06522   0.48873   1.000
    C245    C    0.34050   0.24424   0.64567   1.000
    C246    C    0.84051   0.24424   0.64567   1.000
    C247    C    0.43330   0.32265   0.08970   1.000
    C248    C    0.93330   0.32265   0.08971   1.000
    C249    C    0.32531   0.34946   0.07418   1.000
    C250    C    0.82532   0.34946   0.07418   1.000
    C251    C    0.32778   0.49530   0.04640   1.000
    C252    C    0.82779   0.49530   0.04647   1.000
    C253    C    0.19837   0.43451   0.01100   1.000
    C254    C    0.69838   0.43451   0.01102   1.000
    C255    C    0.28572   0.25580   0.85427   1.000
    C256    C    0.78572   0.25580   0.85427   1.000
    C257    C    0.34439   0.08984   0.17751   1.000
    C258    C    0.84440   0.08984   0.17751   1.000
    C259    C    0.24983   0.07427   0.15059   1.000
    C260    C    0.74984   0.07427   0.15059   1.000
    C261    C    0.66339   0.85429   0.24421   1.000
    C262    C    0.47715   0.41010   0.32252   1.000
    C263    C    0.97716   0.41010   0.32252   1.000
    C264    C    0.36151   0.42557   0.34948   1.000
    C265    C    0.86152   0.42557   0.34948   1.000
    C266    C    0.35093   0.45354   0.49514   1.000
    C267    C    0.85094   0.45354   0.49514   1.000
    C268    C    0.20347   0.48882   0.43470   1.000
    C269    C    0.70348   0.48883   0.43470   1.000
    C270    C    0.21246   0.64565   0.25580   1.000
    C271    C    0.71246   0.64565   0.25580   1.000
    C272    C    0.06327   0.74997   0.24992   1.000
    C273    C    0.56328   0.74997   0.24992   1.000
    C274    C    0.18845   0.25004   0.74900   1.000
    C275    C    0.68846   0.25004   0.74900   1.000
    C276    C    0.43675   0.25002   0.75005   1.000
    C277    C    0.93676   0.25002   0.75005   1.000
    C278    C    0.31156   0.74996   0.25007   1.000
    C279    C    0.81157   0.74996   0.25007   1.000
    S280    S    0.33074   0.77056   0.50825   1.000
    S281    S    0.83075   0.77056   0.50825   1.000
    S282    S    0.46962   0.72936   0.99178   1.000
    S283    S    0.96963   0.72936   0.99178   1.000
    S284    S    0.08407   0.99174   0.77064   1.000
    S285    S    0.58408   0.99174   0.77060   1.000
    S286    S    0.46662   0.50823   0.72945   1.000
    S287    S    0.96663   0.50823   0.72945   1.000
    S288    S    0.16928   0.22944   0.49171   1.000
    S289    S    0.66928   0.22944   0.49171   1.000
    S290    S    0.03040   0.27063   0.00818   1.000
    S291    S    0.53041   0.27063   0.00818   1.000
    S292    S    0.41595   0.00825   0.22933   1.000
    S293    S    0.91596   0.00825   0.22933   1.000
    S294    S    0.03340   0.49177   0.27050   1.000
    S295    S    0.53340   0.49177   0.27050   1.000
    N296    N    0.47500   0.91900   0.51714   1.000
    N297    N    0.97501   0.91900   0.51714   1.000
    N298    N    0.09804   0.80600   0.29978   1.000
    N299    N    0.59805   0.80600   0.29978   1.000
    N300    N    0.19264   0.58089   0.98295   1.000
    N301    N    0.69265   0.58089   0.98295   1.000
    N302    N    0.15074   0.69394   0.20014   1.000
    N303    N    0.65075   0.69394   0.20014   1.000
    N304    N    0.23325   0.98292   0.91901   1.000
    N305    N    0.73326   0.98292   0.91901   1.000
    N306    N    0.24804   0.20019   0.80596   1.000
    N307    N    0.74805   0.20019   0.80596   1.000
    N308    N    0.18458   0.51716   0.58092   1.000
    N309    N    0.68459   0.51716   0.58092   1.000
    N310    N    0.25111   0.29986   0.69391   1.000
    N311    N    0.75112   0.29986   0.69391   1.000
    N312    N    0.02502   0.08100   0.48283   1.000
    N313    N    0.52503   0.08100   0.48283   1.000
    N314    N    0.40198   0.19400   0.70019   1.000
    N315    N    0.90199   0.19400   0.70019   1.000
    N316    N    0.30738   0.41911   0.01702   1.000
    N317    N    0.80738   0.41911   0.01702   1.000
    N318    N    0.34927   0.30605   0.79983   1.000
    N319    N    0.84928   0.30605   0.79983   1.000
    N320    N    0.26677   0.01707   0.08096   1.000
    N321    N    0.76677   0.01707   0.08096   1.000
    N322    N    0.25198   0.79981   0.19401   1.000
    N323    N    0.75199   0.79981   0.19401   1.000
    N324    N    0.31543   0.48284   0.41905   1.000
    N325    N    0.81544   0.48284   0.41905   1.000
    N326    N    0.24891   0.70013   0.30606   1.000
    N327    N    0.74892   0.70013   0.30606   1.000
    O328    O    0.31206   0.83348   0.44373   1.000
    O329    O    0.81207   0.83348   0.44373   1.000
    O330    O    0.23794   0.73992   0.54494   1.000
    O331    O    0.73794   0.73992   0.54494   1.000
    O332    O    0.42099   0.70436   0.47903   1.000
    O333    O    0.92100   0.70436   0.47903   1.000
    O334    O    0.45001   0.66654   0.05637   1.000
    O335    O    0.95002   0.66654   0.05637   1.000
    O336    O    0.37986   0.76006   0.95498   1.000
    O337    O    0.87986   0.76006   0.95498   1.000
    O338    O    0.01241   0.79555   0.02103   1.000
    O339    O    0.51241   0.79555   0.02103   1.000
    O340    O    0.03335   0.05627   0.83353   1.000
    O341    O    0.53336   0.05627   0.83353   1.000
    O342    O    0.00947   0.95496   0.74013   1.000
    O343    O    0.50947   0.95496   0.74013   1.000
    O344    O    0.15953   0.02103   0.70433   1.000
    O345    O    0.65954   0.02103   0.70433   1.000
    O346    O    0.47899   0.44373   0.66658   1.000
    O347    O    0.97900   0.44373   0.66658   1.000
    O348    O    0.35861   0.54498   0.76026   1.000
    O349    O    0.85862   0.54498   0.76026   1.000
    O350    O    0.02422   0.47895   0.79550   1.000
    O351    O    0.52423   0.47895   0.79550   1.000
    O352    O    0.18796   0.16652   0.55624   1.000
    O353    O    0.68796   0.16652   0.55624   1.000
    O354    O    0.26208   0.26008   0.45503   1.000
    O355    O    0.76209   0.26008   0.45503   1.000
    O356    O    0.07903   0.29564   0.52094   1.000
    O357    O    0.57904   0.29564   0.52094   1.000
    O358    O    0.05001   0.33346   0.94360   1.000
    O359    O    0.55002   0.33346   0.94360   1.000
    O360    O    0.12016   0.23994   0.04499   1.000
    O361    O    0.62017   0.23994   0.04499   1.000
    O362    O    0.48761   0.20445   0.97894   1.000
    O363    O    0.98762   0.20445   0.97894   1.000
    O364    O    0.46667   0.94373   0.16644   1.000
    O365    O    0.96668   0.94373   0.16644   1.000
    O366    O    0.49055   0.04504   0.25984   1.000
    O367    O    0.99056   0.04504   0.25984   1.000
    O368    O    0.34049   0.97897   0.29563   1.000
    O369    O    0.84050   0.97896   0.29563   1.000
    O370    O    0.02103   0.55627   0.33339   1.000
    O371    O    0.52104   0.55627   0.33339   1.000
    O372    O    0.14141   0.45502   0.23971   1.000
    O373    O    0.64142   0.45502   0.23971   1.000
    O374    O    0.47580   0.52105   0.20446   1.000
    O375    O    0.97581   0.52105   0.20446   1.000
loop_
    _geom_bond_atom_site_label_1
    _geom_bond_atom_site_label_2
    _geom_bond_distance
    _geom_bond_site_symmetry_2
    _ccdc_geom_bond_type
    H53    C214      1.03880  1_554   S
    H52    C213      1.03880  1_554   S
    C132   H165      1.12558      .   S
    C132   N320      1.54169      .   S
    C132   C223      1.45359  1_544   S
    C132   H167      1.09066  1_554   S
    C133   H166      1.12558      .   S
    C133   N321      1.54169      .   S
    C133   C224      1.45359  1_544   S
    C133   H168      1.09053  1_554   S
    S291   O361      1.47454      .   S
    S291   C247      1.80737      .   S
    S291   O359      1.49648  1_554   S
    S291   O362      1.49309  1_554   S
    S290   O360      1.47454      .   S
    S290   C248      1.80738  1_455   S
    S290   O358      1.49648  1_554   S
    S290   O363      1.49295  1_454   S
    H71    C222      1.10991  1_554   S
    H70    C221      1.10991  1_554   S
    C253   N316      1.48497      .   S
    C253   H147      1.11031      .   S
    C253   C211      1.51633  1_554   S
    C253   H149      1.09382  1_554   S
    C254   N317      1.48488      .   S
    C254   H148      1.11004      .   S
    C254   C212      1.51654  1_554   S
    C254   H150      1.09397  1_554   S
    N316   C251      1.48022      .   S
    N316   C249      1.48690      .   S
    N316   Ag9       2.41703  1_554   S
    N317   C252      1.48071      .   S
    N317   C250      1.48691      .   S
    N317   Ag10      2.41704  1_554   S
    O339   Ag11      2.53728      .   S
    O339   S282      1.49316  1_554   S
    O338   Ag12      2.53714  1_455   S
    O338   S283      1.49303  1_454   S
    C251   H143      1.09706      .   S
    C251   H145      1.11097      .   S
    C251   C213      1.51579  1_554   S
    C252   H144      1.09676      .   S
    C252   H146      1.10999      .   S
    C252   C214      1.51654  1_554   S
    H141   C249      1.09959      .   S
    H142   C250      1.09898      .   S
    H170   C135      1.10994      .   S
    H169   C134      1.10994      .   S
    O334   Ag2       2.42588      .   S
    O334   S282      1.49659  1_554   S
    O335   Ag1       2.42571  1_655   S
    O335   S283      1.49659  1_554   S
    C134   N320      1.48480      .   S
    C134   H171      1.09410  1_545   S
    C134   C221      1.51637  1_544   S
    C135   N321      1.48482      .   S
    C135   H172      1.09326  1_545   S
    C135   C222      1.51636  1_544   S
    C250   C248      1.52612      .   S
    C250   H140      1.10681      .   S
    C249   C247      1.52606      .   S
    C249   H139      1.10680      .   S
    N320   Ag11      2.41615  1_545   S
    N320   C259      1.48693      .   S
    N321   Ag12      2.41615  1_545   S
    N321   C260      1.48693      .   S
    C247   H137      1.09911      .   S
    C247   H130      1.09962      .   S
    C248   H138      1.09902      .   S
    C248   H131      1.09951      .   S
    H54    C215      1.09761      .   S
    H55    C216      1.09762      .   S
    Ag12   O365      2.42652      .   S
    Ag12   N323      2.37286      .   S
    Ag11   O364      2.42651      .   S
    Ag11   N322      2.37287      .   S
    H57    C216      1.09473      .   S
    H56    C215      1.09472      .   S
    Ag2    N303      2.37395      .   S
    Ag2    O374      2.54065      .   S
    Ag2    N301      2.41690  1_554   S
    Ag1    N302      2.37395      .   S
    Ag1    O375      2.54052  1_455   S
    Ag1    N300      2.41690  1_554   S
    H159   C257      1.09905      .   S
    H160   C258      1.09906      .   S
    H161   C259      1.10678      .   S
    H162   C260      1.10677      .   S
    C216   N323      1.48566      .   S
    C216   N303      1.48360      .   S
    C215   N322      1.48566      .   S
    C215   N302      1.48360      .   S
    C259   C257      1.52619      .   S
    C259   H163      1.09900      .   S
    C260   C258      1.52620      .   S
    C260   H164      1.09899      .   S
    O364   S292      1.49623  1_565   S
    O365   S293      1.49623  1_565   S
    C258   H158      1.09944      .   S
    C258   S293      1.80737      .   S
    C257   H157      1.09944      .   S
    C257   S292      1.80737      .   S
    N323   C261      1.48362      .   S
    N323   C279      1.48434      .   S
    N322   C136      1.48354      .   S
    N322   C278      1.48434      .   S
    N302   C272      1.48428      .   S
    N302   C270      1.48552      .   S
    N303   C273      1.48430      .   S
    N303   C271      1.48552      .   S
    H176   C261      1.09475      .   S
    H175   C136      1.09464      .   S
    O374   S295      1.49288      .   S
    O375   S294      1.49274  1_655   S
    H58    C272      1.09725      .   S
    H59    C273      1.09724      .   S
    H199   C278      1.09720      .   S
    H200   C279      1.09720      .   S
    H195   C270      1.09757      .   S
    H196   C271      1.09757      .   S
    S292   O366      1.47446      .   S
    S292   O368      1.49291  1_545   S
    S293   O367      1.47447      .   S
    S293   O369      1.49291  1_545   S
    O372   S294      1.47450      .   S
    O373   S295      1.47450      .   S
    C136   H173      1.09763      .   S
    C136   N298      1.48565      .   S
    C261   H174      1.09752      .   S
    C261   N299      1.48558      .   S
    C273   H37       1.09721      .   S
    C273   N299      1.48442      .   S
    C272   H36       1.09722      .   S
    C272   N298      1.48442      .   S
    C278   H177      1.09728      .   S
    C278   N326      1.48435      .   S
    C279   H178      1.09726      .   S
    C279   N327      1.48437      .   S
    C270   H197      1.09481      .   S
    C270   N326      1.48356      .   S
    C271   H198      1.09480      .   S
    C271   N327      1.48355      .   S
    S295   C262      1.80731      .   S
    S295   O371      1.49657      .   S
    S294   C263      1.80720  1_455   S
    S294   O370      1.49657      .   S
    H179   C262      1.09941      .   S
    H180   C263      1.09943  1_455   S
    O368   Ag32      2.53122      .   S
    O369   Ag0       2.53122      .   S
    H186   C265      1.09894      .   S
    H185   C264      1.09894      .   S
    N299   C102      1.48346      .   S
    N299   Ag32      2.37107      .   S
    N298   C101      1.48347      .   S
    N298   Ag0       2.37094  1_455   S
    N327   C102      1.48545      .   S
    N327   Ag14      2.37153      .   S
    N326   C101      1.48545      .   S
    N326   Ag13      2.37153      .   S
    C263   C265      1.52589      .   S
    C263   H181      1.09883  1_655   S
    C262   C264      1.52589      .   S
    C262   H182      1.09896      .   S
    O371   Ag13      2.42475      .   S
    O370   Ag14      2.42458  1_455   S
    C265   H184      1.10654      .   S
    C265   N325      1.48689      .   S
    C264   H183      1.10655      .   S
    C264   N324      1.48688      .   S
    C102   H35       1.09476      .   S
    C102   H33       1.09765      .   S
    C101   H34       1.09478      .   S
    C101   H31       1.09764      .   S
    H108   C237      1.10001      .   S
    H109   C238      1.10003      .   S
    H113   C240      1.10670      .   S
    H112   C239      1.10670      .   S
    H193   C268      1.09423      .   S
    H194   C269      1.09422      .   S
    Ag32   O328      2.42543      .   S
    Ag32   N296      2.41534      .   S
    Ag0    O329      2.42543      .   S
    Ag0    N297      2.41534      .   S
    H119   C242      1.09018  1_565   S
    H118   C241      1.09018  1_565   S
    H110   C237      1.09902      .   S
    H111   C238      1.09901      .   S
    Ag14   N325      2.41616      .   S
    Ag14   O333      2.53533      .   S
    Ag13   N324      2.41618      .   S
    Ag13   O332      2.53533      .   S
    C238   C240      1.52597      .   S
    C238   S289      1.80704      .   S
    C237   C239      1.52597      .   S
    C237   S288      1.80703      .   S
    N324   C268      1.48472      .   S
    N324   C266      1.48076      .   S
    N325   C269      1.48474      .   S
    N325   C267      1.48076      .   S
    C240   H114      1.09895      .   S
    C240   N313      1.48691      .   S
    C239   H115      1.09882  1_455   S
    C239   N312      1.48692      .   S
    H120   C243      1.10989      .   S
    H121   C244      1.10989      .   S
    C269   H192      1.10993      .   S
    C269   C232      1.51632      .   S
    C268   H191      1.10994      .   S
    C268   C231      1.51633      .   S
    O329   S281      1.49619      .   S
    O328   S280      1.49618      .   S
    H116   C241      1.12622      .   S
    H117   C242      1.12620      .   S
    C242   N313      1.54234      .   S
    C242   C100      1.45262  1_545   S
    C241   N312      1.54234      .   S
    C241   C207      1.45262  1_545   S
    O355   S289      1.47456      .   S
    O354   S288      1.47456      .   S
    O333   S281      1.49292      .   S
    O332   S280      1.49293      .   S
    N313   C243      1.48475      .   S
    N313   Ag8       2.41534      .   S
    N312   C244      1.48454  1_455   S
    N312   Ag7       2.41533      .   S
    H187   C266      1.09676      .   S
    H188   C267      1.09677      .   S
    C244   H123      1.09415      .   S
    C244   C206      1.51640  1_545   S
    C243   H122      1.09415      .   S
    C243   C205      1.51640  1_545   S
    H30    C100      1.09414      .   S
    H29    C207      1.09414      .   S
    H93    C232      1.10993      .   S
    H92    C231      1.10992      .   S
    S288   O356      1.49297      .   S
    S288   O352      1.49630      .   S
    S289   O357      1.49297      .   S
    S289   O353      1.49630      .   S
    C267   H190      1.10992      .   S
    C267   C234      1.51633      .   S
    C266   H189      1.10993      .   S
    C266   C233      1.51633      .   S
    C231   H90       1.09678      .   S
    C231   N308      1.48076      .   S
    C232   H91       1.09676      .   S
    C232   N309      1.48076      .   S
    S280   O330      1.47460      .   S
    S280   C201      1.80716      .   S
    S281   O331      1.47459      .   S
    S281   C202      1.80717      .   S
    C207   N297      1.48453  1_455   S
    C207   H27       1.10989      .   S
    C100   N296      1.48476      .   S
    C100   H28       1.10989      .   S
    N297   C206      1.48071      .   S
    N297   C204      1.48693      .   S
    N296   C205      1.48071      .   S
    N296   C203      1.48693      .   S
    O357   Ag6       2.53533      .   S
    O356   Ag5       2.53533      .   S
    C205   H23       1.09673      .   S
    C205   H25       1.10999  1_565   S
    C206   H24       1.09673      .   S
    C206   H26       1.10999  1_565   S
    H21    C204      1.09884  1_455   S
    H22    C203      1.09894      .   S
    H94    C233      1.10993      .   S
    H95    C234      1.10993      .   S
    O353   Ag8       2.42543      .   S
    O352   Ag7       2.42544      .   S
    C234   N309      1.48474      .   S
    C234   H97       1.09407      .   S
    C233   N308      1.48473      .   S
    C233   H96       1.09408      .   S
    C204   C202      1.52597      .   S
    C204   H20       1.10670      .   S
    C203   C201      1.52596      .   S
    C203   H19       1.10670      .   S
    N309   Ag6       2.41615      .   S
    N309   C230      1.48580      .   S
    N308   Ag5       2.41613      .   S
    N308   C229      1.48581      .   S
    C201   H17       1.09901      .   S
    C201   H15       1.09941      .   S
    C202   H18       1.09902      .   S
    C202   H16       1.09940      .   S
    H124   C245      1.09758      .   S
    H125   C246      1.09757      .   S
    Ag5    O347      2.42458  1_455   S
    Ag5    N310      2.37154      .   S
    Ag6    O346      2.42476      .   S
    Ag6    N311      2.37154      .   S
    H127   C246      1.09565      .   S
    H126   C245      1.09566      .   S
    Ag7    N315      2.37094  1_455   S
    Ag7    O344      2.53111      .   S
    Ag8    N314      2.37108      .   S
    Ag8    O345      2.53110      .   S
    H84    C228      1.09909      .   S
    H85    C227      1.09897  1_655   S
    H86    C229      1.10654      .   S
    H87    C230      1.10654      .   S
    C246   N311      1.48551      .   S
    C246   N315      1.48359      .   S
    C245   N310      1.48551      .   S
    C245   N314      1.48357      .   S
    C229   C227      1.52602      .   S
    C229   H88       1.09994      .   S
    C230   C228      1.52604      .   S
    C230   H89       1.10023      .   S
    O347   S287      1.49635      .   S
    O346   S286      1.49633      .   S
    C227   H82       1.09942  1_455   S
    C227   S287      1.80707  1_455   S
    C228   H83       1.09942      .   S
    C228   S286      1.80718      .   S
    N310   C235      1.48358      .   S
    N310   C274      1.47706      .   S
    N311   C236      1.48356      .   S
    N311   C275      1.47706      .   S
    N314   C276      1.48442      .   S
    N314   C225      1.48559      .   S
    N315   C277      1.48443      .   S
    N315   C226      1.48557      .   S
    H105   C236      1.09481      .   S
    H104   C235      1.09480      .   S
    O344   S284      1.49300  1_545   S
    O345   S285      1.49261  1_545   S
    H129   C277      1.09721      .   S
    H128   C276      1.09721      .   S
    H81    C275      1.08753      .   S
    H80    C274      1.08752      .   S
    H76    C225      1.09751      .   S
    H77    C226      1.09752      .   S
    S287   O349      1.47455      .   S
    S287   O350      1.49287  1_655   S
    S286   O348      1.47456      .   S
    S286   O351      1.49302      .   S
    O343   S285      1.47413      .   S
    O342   S284      1.47446      .   S
    C236   H99       1.09756      .   S
    C236   N319      1.48552      .   S
    C235   H98       1.09756      .   S
    C235   N318      1.48553      .   S
    C274   H106      1.10361      .   S
    C274   N306      1.49519      .   S
    C275   H107      1.10360      .   S
    C275   N307      1.49520      .   S
    C277   H156      1.09724      .   S
    C277   N319      1.48430      .   S
    C276   H155      1.09723      .   S
    C276   N318      1.48430      .   S
    C225   H78       1.09475      .   S
    C225   N306      1.48363      .   S
    C226   H79       1.09475      .   S
    C226   N307      1.48361      .   S
    S285   C218      1.80773      .   S
    S285   O341      1.49666  1_565   S
    S284   C217      1.80735      .   S
    S284   O340      1.49623  1_565   S
    H61    C218      1.09945      .   S
    H60    C217      1.09945      .   S
    O351   Ag9       2.54065      .   S
    O350   Ag10      2.54050  1_455   S
    H67    C220      1.09813      .   S
    H66    C219      1.09813      .   S
    N319   C256      1.48360      .   S
    N319   Ag10      2.37386      .   S
    N318   C255      1.48360      .   S
    N318   Ag9       2.37385      .   S
    N306   C255      1.48566      .   S
    N306   Ag3       2.37247      .   S
    N307   C256      1.48568      .   S
    N307   Ag4       2.37246      .   S
    C218   C220      1.52556      .   S
    C218   H63       1.09865      .   S
    C217   C219      1.52556      .   S
    C217   H62       1.09905      .   S
    O340   Ag3       2.42605      .   S
    O341   Ag4       2.42605      .   S
    C219   H64       1.10720      .   S
    C219   N304      1.48798      .   S
    C220   H65       1.10721      .   S
    C220   N305      1.48797      .   S
    C256   H154      1.09472      .   S
    C256   H152      1.09751      .   S
    C255   H153      1.09473      .   S
    C255   H151      1.09751      .   S
    H38    C103      1.09939      .   S
    H39    C208      1.09939      .   S
    H43    C210      1.10733      .   S
    H42    C209      1.10680      .   S
    H74    C223      1.03960  1_545   S
    H75    C224      1.03960  1_545   S
    Ag10   O358      2.42580  1_655   S
    Ag9    O359      2.42598      .   S
    H49    C212      1.10986      .   S
    H48    C211      1.10986      .   S
    H41    C208      1.09956      .   S
    H40    C103      1.09896      .   S
    Ag3    N304      2.41633  1_545   S
    Ag3    O363      2.53747  1_455   S
    Ag4    N305      2.41635  1_545   S
    Ag4    O362      2.53762      .   S
    C103   C209      1.52618      .   S
    C103   S283      1.80738  1_455   S
    C208   C210      1.52618      .   S
    C208   S282      1.80748      .   S
    N304   C223      1.48481      .   S
    N304   C221      1.48099      .   S
    N305   C224      1.48480      .   S
    N305   C222      1.48100      .   S
    C209   H44       1.09890      .   S
    C209   N300      1.48692      .   S
    C210   H45       1.09890      .   S
    C210   N301      1.48691      .   S
    H50    C213      1.10991      .   S
    H51    C214      1.10990      .   S
    C224   H73       1.10989      .   S
    C223   H72       1.10989      .   S
    H47    C212      1.09681      .   S
    H46    C211      1.09673      .   S
    C212   N301      1.48077      .   S
    C211   N300      1.48078      .   S
    O336   S282      1.47444      .   S
    O337   S283      1.47444      .   S
    N300   C213      1.48482      .   S
    N301   C214      1.48484      .   S
    H69    C222      1.09685      .   S
    H68    C221      1.09680      .   S
