# CIF file generated by openbabel 2.4.90, see http://openbabel.sf.net
data_I
_chemical_name_common 'CdH11C9N2ClO3'
_cell_length_a 5.996
_cell_length_b 15.947
_cell_length_c 16.662
_cell_angle_alpha 90
_cell_angle_beta 90.015
_cell_angle_gamma 90.015
_space_group_name_H-M_alt 'P 1'
_space_group_name_Hall 'P 1'
loop_
    _symmetry_equiv_pos_as_xyz
    x,y,z
loop_
    _atom_site_label
    _atom_site_type_symbol
    _atom_site_fract_x
    _atom_site_fract_y
    _atom_site_fract_z
    _atom_site_occupancy
    Cd0     Cd   0.37186   0.95754   0.39894   1.000
    Cd1     Cd   0.12814   0.45764   0.60103   1.000
    Cd2     Cd   0.62850   0.54289   0.89899   1.000
    Cd3     Cd   0.87153   0.04280   0.10097   1.000
    H4      H    0.45717   0.23336   0.60313   1.000
    H5      H    0.66476   0.36331   0.63749   1.000
    H6      H    0.19458   0.29724   0.49117   1.000
    H7      H    0.01343   0.16101   0.45321   1.000
    H8      H    0.79195   0.03443   0.43132   1.000
    H9      H    0.41273   0.11692   0.51031   1.000
    H10     H    0.63393   0.05902   0.55117   1.000
    H11     H    0.75565   0.16836   0.35492   1.000
    H12     H    0.39995   0.19273   0.28698   1.000
    H13     H    0.37204   0.20314   0.39258   1.000
    H14     H    0.20199   0.07169   0.29151   1.000
    H15     H    0.04285   0.73341   0.39679   1.000
    H16     H    0.83522   0.86330   0.36244   1.000
    H17     H    0.30543   0.79709   0.50876   1.000
    H18     H    0.48664   0.66092   0.54672   1.000
    H19     H    0.70815   0.53447   0.56869   1.000
    H20     H    0.08733   0.61696   0.48961   1.000
    H21     H    0.86607   0.55900   0.44881   1.000
    H22     H    0.74467   0.66847   0.64501   1.000
    H23     H    0.10043   0.69284   0.71295   1.000
    H24     H    0.12837   0.70318   0.60733   1.000
    H25     H    0.29810   0.57175   0.70848   1.000
    H26     H    0.54316   0.26678   0.10310   1.000
    H27     H    0.33516   0.13694   0.13742   1.000
    H28     H    0.80553   0.20326   0.99105   1.000
    H29     H    0.98707   0.33941   0.95313   1.000
    H30     H    0.20860   0.46591   0.93141   1.000
    H31     H    0.58790   0.38325   0.01025   1.000
    H32     H    0.36700   0.44120   0.05122   1.000
    H33     H    0.24476   0.33209   0.85486   1.000
    H34     H    0.60034   0.30772   0.78692   1.000
    H35     H    0.62832   0.29722   0.89252   1.000
    H36     H    0.79833   0.42877   0.79158   1.000
    H37     H    0.95680   0.76668   0.89677   1.000
    H38     H    0.16494   0.63693   0.86243   1.000
    H39     H    0.69429   0.70332   0.00895   1.000
    H40     H    0.51260   0.83939   0.04690   1.000
    H41     H    0.29127   0.96580   0.06855   1.000
    H42     H    0.91181   0.88305   0.98980   1.000
    H43     H    0.13248   0.94109   0.94875   1.000
    H44     H    0.25498   0.83198   0.14511   1.000
    H45     H    0.89936   0.80764   0.21309   1.000
    H46     H    0.87135   0.79710   0.10749   1.000
    H47     H    0.70155   0.92867   0.20840   1.000
    C48     C    0.62197   0.24401   0.57738   1.000
    C49     C    0.71753   0.18587   0.52467   1.000
    C50     C    0.73663   0.31690   0.59714   1.000
    C51     C    0.03228   0.27921   0.51536   1.000
    C52     C    0.92942   0.20434   0.49382   1.000
    C53     C    0.59319   0.10597   0.50493   1.000
    C54     C    0.63172   0.11736   0.35420   1.000
    C55     C    0.40057   0.15781   0.34391   1.000
    C56     C    0.68275   0.06329   0.27984   1.000
    C57     C    0.87806   0.74401   0.42255   1.000
    C58     C    0.78253   0.68585   0.47526   1.000
    C59     C    0.76338   0.81687   0.40279   1.000
    C60     C    0.46773   0.77911   0.48457   1.000
    C61     C    0.57063   0.70427   0.50611   1.000
    C62     C    0.90689   0.60599   0.49502   1.000
    C63     C    0.86849   0.61746   0.64576   1.000
    C64     C    0.09971   0.65788   0.65603   1.000
    C65     C    0.81730   0.56341   0.72013   1.000
    C66     C    0.37831   0.25622   0.07732   1.000
    C67     C    0.28291   0.31441   0.02462   1.000
    C68     C    0.26343   0.18338   0.09706   1.000
    C69     C    0.96788   0.22121   0.01524   1.000
    C70     C    0.07095   0.29603   0.00000   1.000
    C71     C    0.40746   0.39428   0.00492   1.000
    C72     C    0.36871   0.38308   0.85419   1.000
    C73     C    0.59980   0.34260   0.84388   1.000
    C74     C    0.31753   0.43724   0.77989   1.000
    C75     C    0.12160   0.75616   0.92258   1.000
    C76     C    0.21687   0.81435   0.97534   1.000
    C77     C    0.23657   0.68337   0.90283   1.000
    C78     C    0.53197   0.72124   0.98473   1.000
    C79     C    0.42879   0.79601   0.00626   1.000
    C80     C    0.09224   0.89416   0.99507   1.000
    C81     C    0.13110   0.88297   0.14578   1.000
    C82     C    0.89995   0.84250   0.15611   1.000
    C83     C    0.18239   0.93713   0.22009   1.000
    N84     N    0.93931   0.33469   0.56654   1.000
    N85     N    0.64026   0.06508   0.42734   1.000
    N86     N    0.56069   0.83461   0.43339   1.000
    N87     N    0.85986   0.56514   0.57263   1.000
    N88     N    0.06068   0.16568   0.06643   1.000
    N89     N    0.36030   0.43528   0.92739   1.000
    N90     N    0.43927   0.66570   0.93349   1.000
    N91     N    0.13953   0.93517   0.07258   1.000
    Cl92    Cl   0.07808   0.96200   0.50480   1.000
    Cl93    Cl   0.42199   0.46206   0.49518   1.000
    Cl94    Cl   0.92239   0.53833   0.00483   1.000
    Cl95    Cl   0.57752   0.03826   0.99516   1.000
    O96     O    0.67559   0.98387   0.28828   1.000
    O97     O    0.22379   0.09769   0.34664   1.000
    O98     O    0.72091   0.10332   0.21563   1.000
    O99     O    0.82441   0.48401   0.71171   1.000
    O100    O    0.27634   0.59773   0.65334   1.000
    O101    O    0.77911   0.60346   0.78434   1.000
    O102    O    0.32446   0.51664   0.78838   1.000
    O103    O    0.77669   0.40267   0.84667   1.000
    O104    O    0.27940   0.39727   0.71563   1.000
    O105    O    0.17552   0.01654   0.21161   1.000
    O106    O    0.72319   0.90258   0.15330   1.000
    O107    O    0.22052   0.89714   0.28434   1.000
loop_
    _geom_bond_atom_site_label_1
    _geom_bond_atom_site_label_2
    _geom_bond_distance
    _geom_bond_site_symmetry_2
    _ccdc_geom_bond_type
    C70    C69       1.36743  1_455   S
    C70    C67       1.36710      .   S
    C70    H29       1.15813  1_454   S
    Cl94   Cd2       2.49374  1_554   S
    C71    H31       1.09974      .   S
    C71    C67       1.51237      .   S
    C71    H32       1.10182      .   S
    C71    N89       1.47508  1_554   S
    C79    H40       1.09048      .   S
    C79    C76       1.40193  1_554   S
    C79    C78       1.39063  1_554   S
    H39    C78       1.09164  1_554   S
    C69    N88       1.34962  1_655   S
    C69    H28       1.09164  1_554   S
    C67    C66       1.39989      .   S
    N88    C68       1.34812      .   S
    N88    Cd3       2.33581  1_455   S
    H41    N91       1.03477      .   S
    N91    Cd3       2.39864  1_465   S
    N91    C81       1.47756      .   S
    N91    C80       1.47505  1_554   S
    C66    C68       1.38975      .   S
    C66    H26       1.09065      .   S
    C68    H27       1.08892      .   S
    Cd3    O98       2.32342      .   S
    Cd3    Cl95      2.49382  1_554   S
    H46    C82       1.09985      .   S
    H44    C81       1.10153      .   S
    C81    C82       1.53842  1_455   S
    C81    C83       1.54044      .   S
    O106   C82       1.42967      .   S
    O106   H47       1.01624      .   S
    C82    H45       1.10006      .   S
    O105   C83       1.27501  1_545   S
    O98    C56       1.26687      .   S
    C83    O107      1.26682      .   S
    C56    O96       1.27499  1_545   S
    C56    C54       1.54034      .   S
    O107   Cd0       2.32292      .   S
    H12    C55       1.10007      .   S
    H14    O97       1.01625      .   S
    C55    O97       1.42977      .   S
    C55    C54       1.53839      .   S
    C55    H13       1.09985      .   S
    C54    H11       1.10151      .   S
    C54    N85       1.47756      .   S
    H16    C59       1.08892      .   S
    H15    C57       1.09059  1_455   S
    Cd0    N85       2.39853  1_565   S
    Cd0    N86       2.33561      .   S
    Cd0    Cl92      2.49418      .   S
    C59    C57       1.38974      .   S
    C59    N86       1.34811      .   S
    C57    C58       1.39987      .   S
    N85    H8        1.03476      .   S
    N85    C53       1.47523      .   S
    N86    C60       1.34965      .   S
    H21    C62       1.10183      .   S
    H7     C52       1.09063  1_455   S
    C58    C62       1.51226      .   S
    C58    C61       1.40192      .   S
    C60    C61       1.39063      .   S
    C60    H17       1.09183      .   S
    H20    C62       1.09968  1_455   S
    H6     C51       1.09185      .   S
    C52    C51       1.39063  1_655   S
    C52    C49       1.40193      .   S
    C62    N87       1.47524      .   S
    Cl93   Cd1       2.49429      .   S
    C53    H9        1.09975      .   S
    C53    C49       1.51229      .   S
    C53    H10       1.10183      .   S
    C61    H18       1.09064      .   S
    C51    N84       1.34961  1_455   S
    C49    C48       1.39988      .   S
    N84    C50       1.34812      .   S
    N84    Cd1       2.33565  1_655   S
    H19    N87       1.03476      .   S
    N87    Cd1       2.39812  1_655   S
    N87    C63       1.47760      .   S
    C48    C50       1.38974      .   S
    C48    H4        1.09064      .   S
    C50    H5        1.08894      .   S
    Cd1    O104      2.32273      .   S
    H24    C64       1.09984      .   S
    H22    C63       1.10152      .   S
    C63    C64       1.53829  1_655   S
    C63    C65       1.54037      .   S
    O100   C64       1.42975      .   S
    O100   H25       1.01628      .   S
    C64    H23       1.10007      .   S
    O99    C65       1.27464      .   S
    O104   C74       1.26676      .   S
    C65    O101      1.26690      .   S
    C74    O102      1.27471      .   S
    C74    C72       1.54044      .   S
    O101   Cd2       2.32349      .   S
    H34    C73       1.10008      .   S
    H36    O103      1.01622      .   S
    C73    O103      1.42967      .   S
    C73    C72       1.53841      .   S
    C73    H35       1.09985      .   S
    C72    H33       1.10154      .   S
    C72    N89       1.47754      .   S
    H38    C77       1.08891      .   S
    H37    C75       1.09060  1_655   S
    Cd2    N89       2.39871      .   S
    Cd2    N90       2.33561      .   S
    C77    C75       1.38973      .   S
    C77    N90       1.34814      .   S
    C75    C76       1.39989      .   S
    N89    H30       1.03477      .   S
    N90    C78       1.34961      .   S
    H43    C80       1.10182      .   S
    C76    C80       1.51235      .   S
    H42    C80       1.09970  1_655   S
