# CIF file generated by openbabel 2.4.90, see http://openbabel.sf.net
data_I
_chemical_name_common ''
_cell_length_a 18.419
_cell_length_b 18.425
_cell_length_c 18.425
_cell_angle_alpha 60.219
_cell_angle_beta 60.19
_cell_angle_gamma 60.192
_space_group_name_H-M_alt 'P 1'
_space_group_name_Hall 'P 1'
loop_
    _symmetry_equiv_pos_as_xyz
    x,y,z
loop_
    _atom_site_label
    _atom_site_type_symbol
    _atom_site_fract_x
    _atom_site_fract_y
    _atom_site_fract_z
    _atom_site_occupancy
    H0      H    0.04859   0.56781   0.04861   1.000
    H1      H    0.56821   0.04818   0.33571   1.000
    H2      H    0.04754   0.33575   0.04759   1.000
    H3      H    0.33561   0.04828   0.56805   1.000
    H4      H    0.04755   0.04760   0.33573   1.000
    H5      H    0.56821   0.33573   0.04817   1.000
    H6      H    0.04860   0.04861   0.56780   1.000
    H7      H    0.33561   0.56805   0.04829   1.000
    H8      H    0.04823   0.33572   0.56804   1.000
    H9      H    0.56791   0.04855   0.04855   1.000
    H10     H    0.04823   0.56804   0.33571   1.000
    H11     H    0.33564   0.04765   0.04764   1.000
    H12     H    0.43207   0.95144   0.95144   1.000
    H13     H    0.95176   0.43195   0.66427   1.000
    H14     H    0.66434   0.95235   0.95234   1.000
    H15     H    0.95176   0.66427   0.43194   1.000
    H16     H    0.95244   0.95240   0.66425   1.000
    H17     H    0.66437   0.43194   0.95169   1.000
    H18     H    0.95139   0.95139   0.43218   1.000
    H19     H    0.43178   0.66427   0.95181   1.000
    H20     H    0.66438   0.95172   0.43193   1.000
    H21     H    0.95139   0.43218   0.95130   1.000
    H22     H    0.43177   0.95182   0.66427   1.000
    H23     H    0.95244   0.66425   0.95240   1.000
    C24     C    0.02692   0.53887   0.02693   1.000
    C25     C    0.53911   0.02669   0.40768   1.000
    C26     C    0.02633   0.40770   0.02636   1.000
    C27     C    0.40762   0.02675   0.53902   1.000
    C28     C    0.02633   0.02637   0.40769   1.000
    C29     C    0.53911   0.40769   0.02670   1.000
    C30     C    0.02692   0.02693   0.53886   1.000
    C31     C    0.40763   0.53902   0.02676   1.000
    C32     C    0.02673   0.40769   0.53902   1.000
    C33     C    0.53892   0.02690   0.02690   1.000
    C34     C    0.02673   0.53902   0.40768   1.000
    C35     C    0.40764   0.02639   0.02639   1.000
    C36     C    0.46107   0.97310   0.97309   1.000
    C37     C    0.97326   0.46098   0.59230   1.000
    C38     C    0.59235   0.97360   0.97359   1.000
    C39     C    0.97326   0.59231   0.46097   1.000
    C40     C    0.97366   0.97363   0.59229   1.000
    C41     C    0.59236   0.46097   0.97323   1.000
    C42     C    0.97307   0.97307   0.46112   1.000
    C43     C    0.46088   0.59231   0.97329   1.000
    C44     C    0.59236   0.97324   0.46090   1.000
    C45     C    0.97307   0.46113   0.97305   1.000
    C46     C    0.46088   0.97330   0.59230   1.000
    C47     C    0.97366   0.59230   0.97362   1.000
    C48     C    0.11091   0.38883   0.11099   1.000
    C49     C    0.05361   0.44623   0.05360   1.000
    C50     C    0.38911   0.11127   0.38907   1.000
    C51     C    0.44640   0.05381   0.44637   1.000
    C52     C    0.11091   0.11100   0.38882   1.000
    C53     C    0.05360   0.05365   0.44622   1.000
    C54     C    0.38911   0.38907   0.11127   1.000
    C55     C    0.44640   0.44638   0.05378   1.000
    C56     C    0.11125   0.38906   0.38906   1.000
    C57     C    0.05378   0.44638   0.44637   1.000
    C58     C    0.38881   0.11099   0.11099   1.000
    C59     C    0.44622   0.05365   0.05364   1.000
    C60     C    0.61118   0.88900   0.88899   1.000
    C61     C    0.55377   0.94634   0.94634   1.000
    C62     C    0.88874   0.61093   0.61090   1.000
    C63     C    0.94621   0.55362   0.55361   1.000
    C64     C    0.88908   0.88900   0.61116   1.000
    C65     C    0.94638   0.94634   0.55377   1.000
    C66     C    0.61088   0.61092   0.88871   1.000
    C67     C    0.55358   0.55362   0.94620   1.000
    C68     C    0.61088   0.88872   0.61090   1.000
    C69     C    0.55359   0.94620   0.55361   1.000
    C70     C    0.88908   0.61117   0.88899   1.000
    C71     C    0.94637   0.55377   0.94634   1.000
    O72     O    0.13326   0.42840   0.13320   1.000
    O73     O    0.42871   0.13355   0.30532   1.000
    O74     O    0.13273   0.30507   0.13299   1.000
    O75     O    0.30530   0.13339   0.42863   1.000
    O76     O    0.13272   0.13300   0.30500   1.000
    O77     O    0.42871   0.30533   0.13350   1.000
    O78     O    0.13326   0.13321   0.42839   1.000
    O79     O    0.30530   0.42864   0.13339   1.000
    O80     O    0.13344   0.30532   0.42860   1.000
    O81     O    0.42842   0.13326   0.13325   1.000
    O82     O    0.13344   0.42861   0.30531   1.000
    O83     O    0.30499   0.13294   0.13293   1.000
    O84     O    0.57157   0.86674   0.86673   1.000
    O85     O    0.86655   0.57138   0.69467   1.000
    O86     O    0.69500   0.86706   0.86706   1.000
    O87     O    0.86655   0.69467   0.57138   1.000
    O88     O    0.86726   0.86699   0.69493   1.000
    O89     O    0.69468   0.57136   0.86600   1.000
    O90     O    0.86673   0.86679   0.57159   1.000
    O91     O    0.57128   0.69467   0.86645   1.000
    O92     O    0.69468   0.86661   0.57135   1.000
    O93     O    0.86673   0.57159   0.86678   1.000
    O94     O    0.57128   0.86645   0.69467   1.000
    O95     O    0.86726   0.69493   0.86699   1.000
loop_
    _geom_bond_atom_site_label_1
    _geom_bond_atom_site_label_2
    _geom_bond_distance
    _geom_bond_site_symmetry_2
    _ccdc_geom_bond_type
    C26    H2        1.08863      .   S
    C26    C49       1.40259      .   S
    C26    C45       1.39061  1_454   S
    C35    H11       1.08865      .   S
    C35    C59       1.40321      .   S
    C35    C36       1.39051  1_544   S
    C29    H5        1.08861      .   S
    C29    C55       1.40320      .   S
    C29    C41       1.39006  1_554   S
    C31    H7        1.08860      .   S
    C31    C55       1.40320      .   S
    C31    C43       1.39006  1_554   S
    C33    H9        1.08861      .   S
    C33    C59       1.40337      .   S
    C33    C38       1.39064  1_544   S
    C24    H0        1.08860      .   S
    C24    C49       1.40342      .   S
    C24    C47       1.39061  1_454   S
    C49    C48       1.49649      .   S
    C59    C58       1.49610      .   S
    C55    C54       1.49530      .   S
    C48    O74       1.27736      .   S
    C48    O72       1.27699      .   S
    C58    O83       1.27730      .   S
    C58    O81       1.27714      .   S
    C54    O79       1.27714      .   S
    C54    O77       1.27715      .   S
    O76    C52       1.27824      .   S
    O82    C56       1.27719      .   S
    O73    C50       1.27714      .   S
    H10    C34       1.08867      .   S
    H1     C25       1.08869      .   S
    H4     C28       1.08871      .   S
    C52    O78       1.27705      .   S
    C52    C53       1.49587      .   S
    C56    O80       1.27710      .   S
    C56    C57       1.49524      .   S
    C50    O75       1.27711      .   S
    C50    C51       1.49526      .   S
    C25    C51       1.40319      .   S
    C25    C44       1.38932  1_545   S
    C34    C57       1.40316      .   S
    C34    C39       1.39027  1_455   S
    C28    C53       1.40326      .   S
    C28    C42       1.39047  1_445   S
    H20    C44       1.08853      .   S
    H15    C39       1.08860      .   S
    H18    C42       1.08856      .   S
    C53    C30       1.40325      .   S
    C51    C27       1.40326      .   S
    C57    C32       1.40327      .   S
    C44    C69       1.40413      .   S
    C39    C63       1.40312      .   S
    C42    C65       1.40341      .   S
    C30    H6        1.08856      .   S
    C30    C40       1.39046  1_445   S
    C27    H3        1.08860      .   S
    C27    C46       1.39010  1_545   S
    C32    H8        1.08859      .   S
    C32    C37       1.39014  1_455   S
    C63    C37       1.40316      .   S
    C63    C62       1.49498      .   S
    C69    C46       1.40319      .   S
    C69    C68       1.49514      .   S
    C65    C40       1.40312      .   S
    C65    C64       1.49585      .   S
    O92    C68       1.27710      .   S
    O87    C62       1.27705      .   S
    O90    C64       1.27708      .   S
    C40    H16       1.08871      .   S
    C37    H13       1.08867      .   S
    C46    H22       1.08868      .   S
    C62    O85       1.27747      .   S
    C68    O94       1.27741      .   S
    C64    O88       1.27741      .   S
    O89    C66       1.27719      .   S
    O91    C66       1.27715      .   S
    O84    C60       1.27715      .   S
    O93    C70       1.27705      .   S
    O95    C70       1.27736      .   S
    O86    C60       1.27734      .   S
    C66    C67       1.49531      .   S
    C70    C71       1.49589      .   S
    C60    C61       1.49605      .   S
    C67    C41       1.40321      .   S
    C67    C43       1.40320      .   S
    C61    C36       1.40335      .   S
    C61    C38       1.40325      .   S
    C71    C45       1.40336      .   S
    C71    C47       1.40324      .   S
    H21    C45       1.08966      .   S
    H12    C36       1.08861      .   S
    H17    C41       1.08860      .   S
    H19    C43       1.08860      .   S
    H14    C38       1.08863      .   S
    H23    C47       1.08864      .   S
