# CIF file generated by openbabel 2.4.90, see http://openbabel.sf.net
data_I
_chemical_name_common ''
_cell_length_a 18.419
_cell_length_b 18.425
_cell_length_c 18.425
_cell_angle_alpha 60.219
_cell_angle_beta 60.19
_cell_angle_gamma 60.192
_space_group_name_H-M_alt 'P 1'
_space_group_name_Hall 'P 1'
loop_
    _symmetry_equiv_pos_as_xyz
    x,y,z
loop_
    _atom_site_label
    _atom_site_type_symbol
    _atom_site_fract_x
    _atom_site_fract_y
    _atom_site_fract_z
    _atom_site_occupancy
    N0      N    0.99999   0.50000   0.49999   1.000
    N1      N    0.99999   1.00000   0.49999   1.000
    N2      N    0.49999   0.50000   0.99995   1.000
    N3      N    0.49999   1.00000   0.49999   1.000
    N4      N    0.99999   0.50000   0.99998   1.000
    N5      N    0.49999   1.00000   0.99999   1.000
    Zr6     Zr   0.74998   0.74997   0.74996   1.000
    O7      O    0.83263   0.83256   0.68605   1.000
    O8      O    0.83263   0.68606   0.83256   1.000
    O9      O    0.68610   0.83257   0.83257   1.000
    O10     O    0.68599   0.83247   0.64885   1.000
    O11     O    0.83247   0.68598   0.64885   1.000
    O12     O    0.83249   0.83249   0.64888   1.000
    O13     O    0.83247   0.64886   0.68597   1.000
    O14     O    0.83249   0.64889   0.83249   1.000
    O15     O    0.68598   0.64886   0.83238   1.000
    O16     O    0.64884   0.83245   0.68597   1.000
    O17     O    0.64888   0.83248   0.83248   1.000
    O18     O    0.64884   0.68597   0.83243   1.000
    Zr19    Zr   0.25000   0.25003   0.25002   1.000
    O20     O    0.16752   0.35114   0.31401   1.000
    O21     O    0.16750   0.35111   0.16749   1.000
    O22     O    0.31400   0.35114   0.16751   1.000
    O23     O    0.16736   0.31394   0.16742   1.000
    O24     O    0.31389   0.16742   0.16742   1.000
    O25     O    0.16736   0.16743   0.31392   1.000
    O26     O    0.35115   0.16755   0.31401   1.000
    O27     O    0.35111   0.16751   0.16751   1.000
    O28     O    0.35115   0.31402   0.16753   1.000
    O29     O    0.31400   0.16752   0.35113   1.000
    O30     O    0.16752   0.31402   0.35113   1.000
    O31     O    0.16750   0.16750   0.35110   1.000
loop_
    _geom_bond_atom_site_label_1
    _geom_bond_atom_site_label_2
    _geom_bond_distance
    _geom_bond_site_symmetry_2
    _ccdc_geom_bond_type
    Zr6    O7        2.18183      .   S
    N1     O7        4.38343      .   S
    Zr6    O8        2.18186      .   S
    N4     O8        4.38348      .   S
    Zr6    O9        2.18112      .   S
    N5     O9        4.38281      .   S
    Zr6    O10       2.18172      .   S
    N3     O10       4.38243      .   S
    Zr6    O11       2.18076      .   S
    N0     O11       4.38136      .   S
    Zr6    O12       2.18181      .   S
    N1     O12       4.38297      .   S
    Zr6    O13       2.18077      .   S
    N0     O13       4.38136      .   S
    Zr6    O14       2.18185      .   S
    N4     O14       4.38301      .   S
    Zr6    O15       2.18164      .   S
    N2     O15       4.38225      .   S
    Zr6    O16       2.18168      .   S
    N3     O16       4.38252      .   S
    Zr6    O17       2.18106      .   S
    N5     O17       4.38245      .   S
    Zr6    O18       2.18160      .   S
    N2     O18       4.38235      .   S
    Zr19   O20       2.18076      .   S
    N0     O20       4.38134  1_655   S
    Zr19   O21       2.18190      .   S
    N4     O21       4.38316  1_656   S
    Zr19   O22       2.18164      .   S
    N2     O22       4.38225  1_556   S
    Zr19   O23       2.18192      .   S
    N4     O23       4.38361  1_656   S
    Zr19   O24       2.18110      .   S
    N5     O24       4.38280  1_566   S
    Zr19   O25       2.18185      .   S
    N1     O25       4.38343  1_665   S
    Zr19   O26       2.18167      .   S
    N3     O26       4.38242  1_565   S
    Zr19   O27       2.18106      .   S
    N5     O27       4.38242  1_566   S
    Zr19   O28       2.18160      .   S
    N2     O28       4.38235  1_556   S
    Zr19   O29       2.18169      .   S
    N3     O29       4.38236  1_565   S
    Zr19   O30       2.18075      .   S
    N0     O30       4.38135  1_655   S
    Zr19   O31       2.18180      .   S
    N1     O31       4.38298  1_665   S
