# CIF file generated by openbabel 2.4.90, see http://openbabel.sf.net
data_I
_chemical_name_common ''
_cell_length_a 18.419
_cell_length_b 18.425
_cell_length_c 18.425
_cell_angle_alpha 60.219
_cell_angle_beta 60.19
_cell_angle_gamma 60.192
_space_group_name_H-M_alt 'P 1'
_space_group_name_Hall 'P 1'
loop_
    _symmetry_equiv_pos_as_xyz
    x,y,z
loop_
    _atom_site_label
    _atom_site_type_symbol
    _atom_site_fract_x
    _atom_site_fract_y
    _atom_site_fract_z
    _atom_site_occupancy
    C0      C    0.20672   0.38037   0.20669   1.000
    C1      C    0.38046   0.20674   0.20674   1.000
    C2      C    0.20615   0.20635   0.20634   1.000
    C3      C    0.20672   0.20670   0.38036   1.000
    C4      C    0.61952   0.79325   0.79324   1.000
    C5      C    0.79327   0.61963   0.79329   1.000
    C6      C    0.79384   0.79364   0.79364   1.000
    C7      C    0.79327   0.79329   0.61962   1.000
    C8      C    0.04859   0.56781   0.04861   1.000
    C9      C    0.56821   0.04818   0.33571   1.000
    C10     C    0.04754   0.33575   0.04759   1.000
    C11     C    0.33561   0.04828   0.56805   1.000
    C12     C    0.04755   0.04760   0.33573   1.000
    C13     C    0.56821   0.33573   0.04817   1.000
    C14     C    0.04860   0.04861   0.56780   1.000
    C15     C    0.33561   0.56805   0.04829   1.000
    C16     C    0.04823   0.33572   0.56804   1.000
    C17     C    0.56791   0.04855   0.04855   1.000
    C18     C    0.04823   0.56804   0.33571   1.000
    C19     C    0.33564   0.04765   0.04764   1.000
    C20     C    0.43207   0.95144   0.95144   1.000
    C21     C    0.95176   0.43195   0.66427   1.000
    C22     C    0.66434   0.95235   0.95234   1.000
    C23     C    0.95176   0.66427   0.43194   1.000
    C24     C    0.95244   0.95240   0.66425   1.000
    C25     C    0.66437   0.43194   0.95169   1.000
    C26     C    0.95139   0.95139   0.43218   1.000
    C27     C    0.43178   0.66427   0.95181   1.000
    C28     C    0.66438   0.95172   0.43193   1.000
    C29     C    0.95139   0.43218   0.95130   1.000
    C30     C    0.43177   0.95182   0.66427   1.000
    C31     C    0.95244   0.66425   0.95240   1.000
    C32     C    0.02692   0.53887   0.02693   1.000
    C33     C    0.53911   0.02669   0.40768   1.000
    C34     C    0.02633   0.40770   0.02636   1.000
    C35     C    0.40762   0.02675   0.53902   1.000
    C36     C    0.02633   0.02637   0.40769   1.000
    C37     C    0.53911   0.40769   0.02670   1.000
    C38     C    0.02692   0.02693   0.53886   1.000
    C39     C    0.40763   0.53902   0.02676   1.000
    C40     C    0.02673   0.40769   0.53902   1.000
    C41     C    0.53892   0.02690   0.02690   1.000
    C42     C    0.02673   0.53902   0.40768   1.000
    C43     C    0.40764   0.02639   0.02639   1.000
    C44     C    0.46107   0.97310   0.97309   1.000
    C45     C    0.97326   0.46098   0.59230   1.000
    C46     C    0.59235   0.97360   0.97359   1.000
    C47     C    0.97326   0.59231   0.46097   1.000
    C48     C    0.97366   0.97363   0.59229   1.000
    C49     C    0.59236   0.46097   0.97323   1.000
    C50     C    0.97307   0.97307   0.46112   1.000
    C51     C    0.46088   0.59231   0.97329   1.000
    C52     C    0.59236   0.97324   0.46090   1.000
    C53     C    0.97307   0.46113   0.97305   1.000
    C54     C    0.46088   0.97330   0.59230   1.000
    C55     C    0.97366   0.59230   0.97362   1.000
    C56     C    0.11091   0.38883   0.11099   1.000
    C57     C    0.05361   0.44623   0.05360   1.000
    C58     C    0.38911   0.11127   0.38907   1.000
    C59     C    0.44640   0.05381   0.44637   1.000
    C60     C    0.11091   0.11100   0.38882   1.000
    C61     C    0.05360   0.05365   0.44622   1.000
    C62     C    0.38911   0.38907   0.11127   1.000
    C63     C    0.44640   0.44638   0.05378   1.000
    C64     C    0.11125   0.38906   0.38906   1.000
    C65     C    0.05378   0.44638   0.44637   1.000
    C66     C    0.38881   0.11099   0.11099   1.000
    C67     C    0.44622   0.05365   0.05364   1.000
    C68     C    0.61118   0.88900   0.88899   1.000
    C69     C    0.55377   0.94634   0.94634   1.000
    C70     C    0.88874   0.61093   0.61090   1.000
    C71     C    0.94621   0.55362   0.55361   1.000
    C72     C    0.88908   0.88900   0.61116   1.000
    C73     C    0.94638   0.94634   0.55377   1.000
    C74     C    0.61088   0.61092   0.88871   1.000
    C75     C    0.55358   0.55362   0.94620   1.000
    C76     C    0.61088   0.88872   0.61090   1.000
    C77     C    0.55359   0.94620   0.55361   1.000
    C78     C    0.88908   0.61117   0.88899   1.000
    C79     C    0.94637   0.55377   0.94634   1.000
    C80     C    0.24997   0.24997   0.24996   1.000
    C81     C    0.75002   0.75003   0.75002   1.000
    C82     C    0.13326   0.42840   0.13320   1.000
    C83     C    0.42871   0.13355   0.30532   1.000
    C84     C    0.13273   0.30507   0.13299   1.000
    C85     C    0.30530   0.13339   0.42863   1.000
    C86     C    0.13272   0.13300   0.30500   1.000
    C87     C    0.42871   0.30533   0.13350   1.000
    C88     C    0.13326   0.13321   0.42839   1.000
    C89     C    0.30530   0.42864   0.13339   1.000
    C90     C    0.13344   0.30532   0.42860   1.000
    C91     C    0.42842   0.13326   0.13325   1.000
    C92     C    0.13344   0.42861   0.30531   1.000
    C93     C    0.30499   0.13294   0.13293   1.000
    C94     C    0.57157   0.86674   0.86673   1.000
    C95     C    0.86655   0.57138   0.69467   1.000
    C96     C    0.69500   0.86706   0.86706   1.000
    C97     C    0.86655   0.69467   0.57138   1.000
    C98     C    0.86726   0.86699   0.69493   1.000
    C99     C    0.69468   0.57136   0.86600   1.000
    C100    C    0.86673   0.86679   0.57159   1.000
    C101    C    0.57128   0.69467   0.86645   1.000
    C102    C    0.69468   0.86661   0.57135   1.000
    C103    C    0.86673   0.57159   0.86678   1.000
    C104    C    0.57128   0.86645   0.69467   1.000
    C105    C    0.86726   0.69493   0.86699   1.000
    O106    O    0.03694   0.37172   0.03697   1.000
    O107    O    0.03997   0.42696   0.03998   1.000
    O108    O    0.99970   0.43441   0.99970   1.000
    O109    O    0.37164   0.03702   0.03701   1.000
    O110    O    0.42693   0.04002   0.04001   1.000
    O111    O    0.43435   0.99975   0.99974   1.000
    O112    O    0.55366   0.37171   0.03743   1.000
    O113    O    0.49276   0.42703   0.04024   1.000
    O114    O    0.56574   0.43433   0.99996   1.000
    O115    O    0.37162   0.55354   0.03752   1.000
    O116    O    0.42701   0.49270   0.04027   1.000
    O117    O    0.43425   0.56567   0.00002   1.000
    O118    O    0.55342   0.03772   0.03772   1.000
    O119    O    0.49257   0.04027   0.04027   1.000
    O120    O    0.56563   0.00025   0.00024   1.000
    O121    O    0.03776   0.55334   0.03777   1.000
    O122    O    0.04026   0.49255   0.04026   1.000
    O123    O    0.00029   0.56558   0.00027   1.000
    O124    O    0.08226   0.41753   0.08229   1.000
    O125    O    0.41751   0.08232   0.08231   1.000
    O126    O    0.41776   0.41773   0.08252   1.000
    O127    O    0.12182   0.34695   0.12199   1.000
    O128    O    0.12208   0.40862   0.12209   1.000
    O129    O    0.34690   0.12197   0.12196   1.000
    O130    O    0.40861   0.12213   0.12212   1.000
    O131    O    0.34721   0.40886   0.12233   1.000
    O132    O    0.40891   0.34720   0.12238   1.000
    O133    O    0.25557   0.16964   0.16963   1.000
    O134    O    0.16944   0.25571   0.16966   1.000
    O135    O    0.16999   0.40438   0.16994   1.000
    O136    O    0.40444   0.17000   0.16999   1.000
    O137    O    0.25601   0.40450   0.17004   1.000
    O138    O    0.40459   0.25604   0.17012   1.000
    O139    O    0.16944   0.16968   0.25567   1.000
    O140    O    0.22834   0.31517   0.22832   1.000
    O141    O    0.17008   0.40449   0.25600   1.000
    O142    O    0.40459   0.17015   0.25603   1.000
    O143    O    0.22835   0.22834   0.31516   1.000
    O144    O    0.12182   0.12200   0.34691   1.000
    O145    O    0.12235   0.40884   0.34718   1.000
    O146    O    0.40891   0.12241   0.34719   1.000
    O147    O    0.03748   0.55353   0.37169   1.000
    O148    O    0.55366   0.03743   0.37169   1.000
    O149    O    0.03694   0.03698   0.37171   1.000
    O150    O    0.16999   0.16995   0.40437   1.000
    O151    O    0.17008   0.25601   0.40448   1.000
    O152    O    0.25601   0.17005   0.40449   1.000
    O153    O    0.12208   0.12210   0.40860   1.000
    O154    O    0.08226   0.08233   0.41752   1.000
    O155    O    0.12235   0.34719   0.40883   1.000
    O156    O    0.08252   0.41772   0.41771   1.000
    O157    O    0.34721   0.12233   0.40885   1.000
    O158    O    0.41775   0.08254   0.41772   1.000
    O159    O    0.49276   0.04025   0.42702   1.000
    O160    O    0.56574   0.99997   0.43429   1.000
    O161    O    0.04025   0.49270   0.42702   1.000
    O162    O    1.00000   0.56567   0.43432   1.000
    O163    O    0.03997   0.04001   0.42695   1.000
    O164    O    0.99970   0.99972   0.43440   1.000
    O165    O    0.62837   0.96248   0.44641   1.000
    O166    O    0.96251   0.62829   0.44645   1.000
    O167    O    0.96223   0.96223   0.44665   1.000
    O168    O    0.04026   0.04029   0.49254   1.000
    O169    O    0.42701   0.04028   0.49269   1.000
    O170    O    0.04025   0.42703   0.49269   1.000
    O171    O    0.57298   0.95972   0.50725   1.000
    O172    O    0.95973   0.57296   0.50729   1.000
    O173    O    0.95973   0.95970   0.50744   1.000
    O174    O    0.03776   0.03777   0.55333   1.000
    O175    O    0.00029   0.00028   0.56557   1.000
    O176    O    0.37162   0.03751   0.55354   1.000
    O177    O    0.43425   0.00002   0.56566   1.000
    O178    O    0.03748   0.37171   0.55353   1.000
    O179    O    0.99999   0.43433   0.56566   1.000
    O180    O    0.95973   0.50730   0.57295   1.000
    O181    O    0.91747   0.58227   0.58225   1.000
    O182    O    0.50723   0.95975   0.57295   1.000
    O183    O    0.58223   0.91746   0.58225   1.000
    O184    O    0.96002   0.95999   0.57303   1.000
    O185    O    0.91773   0.91767   0.58246   1.000
    O186    O    0.65278   0.87766   0.59112   1.000
    O187    O    0.74398   0.82995   0.59548   1.000
    O188    O    0.87764   0.65280   0.59114   1.000
    O189    O    0.82991   0.74398   0.59550   1.000
    O190    O    0.87790   0.87790   0.59137   1.000
    O191    O    0.83000   0.83004   0.59560   1.000
    O192    O    0.96305   0.96301   0.62827   1.000
    O193    O    0.96251   0.44646   0.62828   1.000
    O194    O    0.44633   0.96256   0.62828   1.000
    O195    O    0.87764   0.59116   0.65278   1.000
    O196    O    0.59108   0.87758   0.65278   1.000
    O197    O    0.87817   0.87800   0.65304   1.000
    O198    O    0.77164   0.77166   0.68482   1.000
    O199    O    0.82991   0.59551   0.74398   1.000
    O200    O    0.59540   0.82985   0.74395   1.000
    O201    O    0.83055   0.83032   0.74428   1.000
    O202    O    0.77164   0.68483   0.77165   1.000
    O203    O    0.59540   0.74396   0.82984   1.000
    O204    O    0.59555   0.83000   0.82998   1.000
    O205    O    0.74398   0.59549   0.82964   1.000
    O206    O    0.83000   0.59561   0.83003   1.000
    O207    O    0.83055   0.74429   0.83031   1.000
    O208    O    0.74442   0.83035   0.83035   1.000
    O209    O    0.65278   0.59114   0.87735   1.000
    O210    O    0.59108   0.65280   0.87758   1.000
    O211    O    0.59137   0.87787   0.87786   1.000
    O212    O    0.87790   0.59138   0.87788   1.000
    O213    O    0.87817   0.65305   0.87799   1.000
    O214    O    0.65309   0.87803   0.87802   1.000
    O215    O    0.58223   0.58227   0.91745   1.000
    O216    O    0.91773   0.58247   0.91766   1.000
    O217    O    0.58248   0.91767   0.91766   1.000
    O218    O    0.57297   0.50730   0.95971   1.000
    O219    O    0.50723   0.57296   0.95974   1.000
    O220    O    0.50742   0.95972   0.95971   1.000
    O221    O    0.57306   0.95997   0.95996   1.000
    O222    O    0.95972   0.50745   0.95969   1.000
    O223    O    0.96002   0.57303   0.95998   1.000
    O224    O    0.96223   0.44665   0.96217   1.000
    O225    O    0.44657   0.96227   0.96226   1.000
    O226    O    0.62837   0.44646   0.96246   1.000
    O227    O    0.44633   0.62829   0.96255   1.000
    O228    O    0.62834   0.96297   0.96296   1.000
    O229    O    0.96305   0.62827   0.96301   1.000
    O230    O    0.31522   0.22836   0.22835   1.000
    O231    O    0.22806   0.22816   0.22815   1.000
    O232    O    0.68477   0.77164   0.77163   1.000
    O233    O    0.77193   0.77184   0.77183   1.000
loop_
    _geom_bond_atom_site_label_1
    _geom_bond_atom_site_label_2
    _geom_bond_distance
    _geom_bond_site_symmetry_2
    _ccdc_geom_bond_type
    C34    O106      0.54431      .   S
    C10    O106      0.54431      .   S
    C34    O107      0.70129      .   S
    C57    O107      0.70129      .   S
    C34    O108      0.69531  1_454   S
    C53    O108      0.69531      .   S
    C43    O109      0.54432      .   S
    C19    O109      0.54432      .   S
    C43    O110      0.70160      .   S
    C67    O110      0.70160      .   S
    C43    O111      0.69526  1_544   S
    C44    O111      0.69526      .   S
    C37    O112      0.54430      .   S
    C13    O112      0.54430      .   S
    C37    O113      0.70160      .   S
    C63    O113      0.70160      .   S
    C37    O114      0.69503  1_554   S
    C49    O114      0.69503      .   S
    C39    O115      0.54430      .   S
    C15    O115      0.54430      .   S
    C39    O116      0.70160      .   S
    C63    O116      0.70160      .   S
    C39    O117      0.69503      .   S
    C51    O117      0.69503  1_556   S
    C41    O118      0.54430      .   S
    C17    O118      0.54430      .   S
    C41    O119      0.70168      .   S
    C67    O119      0.70168      .   S
    C41    O120      0.69532      .   S
    C46    O120      0.69532  1_566   S
    C32    O121      0.54430      .   S
    C8     O121      0.54430      .   S
    C32    O122      0.70171      .   S
    C57    O122      0.70171      .   S
    C32    O123      0.69531      .   S
    C55    O123      0.69531  1_656   S
    C57    O124      0.74825      .   S
    C56    O124      0.74825      .   S
    C67    O125      0.74805      .   S
    C66    O125      0.74805      .   S
    C63    O126      0.74765      .   S
    C62    O126      0.74765      .   S
    C56    O127      0.63868      .   S
    C84    O127      0.63868      .   S
    C56    O128      0.63850      .   S
    C82    O128      0.63850      .   S
    C66    O129      0.63865      .   S
    C93    O129      0.63865      .   S
    C66    O130      0.63857      .   S
    C91    O130      0.63857      .   S
    C62    O131      0.63857      .   S
    C89    O131      0.63857      .   S
    C62    O132      0.63857      .   S
    C87    O132      0.63857      .   S
    C93    O133      0.98673      .   S
    C2     O133      0.98673      .   S
    C84    O134      0.98658      .   S
    C2     O134      0.98658      .   S
    C82    O135      0.98592      .   S
    C0     O135      0.98592      .   S
    C91    O136      0.98616      .   S
    C1     O136      0.98616      .   S
    C89    O137      0.98571      .   S
    C0     O137      0.98571      .   S
    C87    O138      0.98583      .   S
    C1     O138      0.98583      .   S
    C2     O139      0.98645      .   S
    C86    O139      0.98645      .   S
    C0     O140      0.98342      .   S
    C80    O140      0.98342      .   S
    C0     O141      0.98577      .   S
    C92    O141      0.98577      .   S
    C1     O142      0.98585      .   S
    C83    O142      0.98585      .   S
    C80    O143      0.98342      .   S
    C3     O143      0.98342      .   S
    C86    O144      0.63912      .   S
    C60    O144      0.63912      .   S
    C92    O145      0.63860      .   S
    C64    O145      0.63860      .   S
    C83    O146      0.63857      .   S
    C58    O146      0.63857      .   S
    C18    O147      0.54434      .   S
    C42    O147      0.54434      .   S
    C9     O148      0.54434      .   S
    C33    O148      0.54434      .   S
    C12    O149      0.54435      .   S
    C36    O149      0.54435      .   S
    C3     O150      0.98592      .   S
    C88    O150      0.98592      .   S
    C3     O151      0.98576      .   S
    C90    O151      0.98576      .   S
    C3     O152      0.98572      .   S
    C85    O152      0.98572      .   S
    C60    O153      0.63853      .   S
    C88    O153      0.63853      .   S
    C60    O154      0.74794      .   S
    C61    O154      0.74794      .   S
    C64    O155      0.63855      .   S
    C90    O155      0.63855      .   S
    C64    O156      0.74762      .   S
    C65    O156      0.74762      .   S
    C58    O157      0.63856      .   S
    C85    O157      0.63856      .   S
    C58    O158      0.74763      .   S
    C59    O158      0.74763      .   S
    C33    O159      0.70160      .   S
    C59    O159      0.70160      .   S
    C33    O160      0.69466  1_545   S
    C52    O160      0.69466      .   S
    C42    O161      0.70158      .   S
    C65    O161      0.70158      .   S
    C42    O162      0.69514  1_455   S
    C47    O162      0.69514      .   S
    C36    O163      0.70163      .   S
    C61    O163      0.70163      .   S
    C36    O164      0.69523  1_445   S
    C50    O164      0.69523      .   S
    C28    O165      0.54426      .   S
    C52    O165      0.54426      .   S
    C23    O166      0.54430      .   S
    C47    O166      0.54430      .   S
    C26    O167      0.54428      .   S
    C50    O167      0.54428      .   S
    C61    O168      0.70162      .   S
    C38    O168      0.70162      .   S
    C59    O169      0.70163      .   S
    C35    O169      0.70163      .   S
    C65    O170      0.70163      .   S
    C40    O170      0.70163      .   S
    C52    O171      0.70207      .   S
    C77    O171      0.70207      .   S
    C47    O172      0.70156      .   S
    C71    O172      0.70156      .   S
    C50    O173      0.70170      .   S
    C73    O173      0.70170      .   S
    C38    O174      0.54428      .   S
    C14    O174      0.54428      .   S
    C38    O175      0.69523      .   S
    C48    O175      0.69523  1_665   S
    C35    O176      0.54430      .   S
    C11    O176      0.54430      .   S
    C35    O177      0.69505      .   S
    C54    O177      0.69505  1_565   S
    C40    O178      0.54429      .   S
    C16    O178      0.54429      .   S
    C40    O179      0.69507  1_455   S
    C45    O179      0.69507      .   S
    C71    O180      0.70158      .   S
    C45    O180      0.70158      .   S
    C71    O181      0.74749      .   S
    C70    O181      0.74749      .   S
    C77    O182      0.70159      .   S
    C54    O182      0.70159      .   S
    C77    O183      0.74757      .   S
    C76    O183      0.74757      .   S
    C73    O184      0.70156      .   S
    C48    O184      0.70156      .   S
    C73    O185      0.74792      .   S
    C72    O185      0.74792      .   S
    C102   O186      0.63855      .   S
    C76    O186      0.63855      .   S
    C102   O187      0.98572      .   S
    C7     O187      0.98572      .   S
    C97    O188      0.63852      .   S
    C70    O188      0.63852      .   S
    C97    O189      0.98576      .   S
    C7     O189      0.98576      .   S
    C100   O190      0.63854      .   S
    C72    O190      0.63854      .   S
    C100   O191      0.98592      .   S
    C7     O191      0.98592      .   S
    C48    O192      0.54435      .   S
    C24    O192      0.54435      .   S
    C45    O193      0.54434      .   S
    C21    O193      0.54434      .   S
    C54    O194      0.54434      .   S
    C30    O194      0.54434      .   S
    C70    O195      0.63874      .   S
    C95    O195      0.63874      .   S
    C76    O196      0.63871      .   S
    C104   O196      0.63871      .   S
    C72    O197      0.63871      .   S
    C98    O197      0.63871      .   S
    C7     O198      0.98342      .   S
    C81    O198      0.98342      .   S
    C95    O199      0.98576      .   S
    C5     O199      0.98576      .   S
    C104   O200      0.98578      .   S
    C4     O200      0.98578      .   S
    C98    O201      0.98656      .   S
    C6     O201      0.98656      .   S
    C81    O202      0.98342      .   S
    C5     O202      0.98342      .   S
    C4     O203      0.98583      .   S
    C101   O203      0.98583      .   S
    C4     O204      0.98616      .   S
    C94    O204      0.98616      .   S
    C5     O205      0.98571      .   S
    C99    O205      0.98571      .   S
    C5     O206      0.98590      .   S
    C103   O206      0.98590      .   S
    C6     O207      0.98657      .   S
    C105   O207      0.98657      .   S
    C6     O208      0.98677      .   S
    C96    O208      0.98677      .   S
    C99    O209      0.63859      .   S
    C74    O209      0.63859      .   S
    C101   O210      0.63858      .   S
    C74    O210      0.63858      .   S
    C94    O211      0.63858      .   S
    C68    O211      0.63858      .   S
    C103   O212      0.63852      .   S
    C78    O212      0.63852      .   S
    C105   O213      0.63868      .   S
    C78    O213      0.63868      .   S
    C96    O214      0.63867      .   S
    C68    O214      0.63867      .   S
    C74    O215      0.74766      .   S
    C75    O215      0.74766      .   S
    C78    O216      0.74795      .   S
    C79    O216      0.74795      .   S
    C68    O217      0.74803      .   S
    C69    O217      0.74803      .   S
    C75    O218      0.70160      .   S
    C49    O218      0.70160      .   S
    C75    O219      0.70160      .   S
    C51    O219      0.70160      .   S
    C69    O220      0.70167      .   S
    C44    O220      0.70167      .   S
    C69    O221      0.70163      .   S
    C46    O221      0.70163      .   S
    C79    O222      0.70168      .   S
    C53    O222      0.70168      .   S
    C79    O223      0.70162      .   S
    C55    O223      0.70162      .   S
    C29    O224      0.54483      .   S
    C53    O224      0.54483      .   S
    C20    O225      0.54430      .   S
    C44    O225      0.54430      .   S
    C25    O226      0.54430      .   S
    C49    O226      0.54430      .   S
    C27    O227      0.54430      .   S
    C51    O227      0.54430      .   S
    C22    O228      0.54431      .   S
    C46    O228      0.54431      .   S
    C31    O229      0.54432      .   S
    C55    O229      0.54432      .   S
    C80    O230      0.98353      .   S
    C1     O230      0.98353      .   S
    C80    O231      0.98421      .   S
    C2     O231      0.98421      .   S
    C81    O232      0.98353      .   S
    C4     O232      0.98353      .   S
    C81    O233      0.98421      .   S
    C6     O233      0.98421      .   S
