# CIF file generated by openbabel 2.4.90, see http://openbabel.sf.net
data_I
_chemical_name_common ''
_cell_length_a 18.419
_cell_length_b 18.425
_cell_length_c 18.425
_cell_angle_alpha 60.219
_cell_angle_beta 60.19
_cell_angle_gamma 60.192
_space_group_name_H-M_alt 'P 1'
_space_group_name_Hall 'P 1'
loop_
    _symmetry_equiv_pos_as_xyz
    x,y,z
loop_
    _atom_site_label
    _atom_site_type_symbol
    _atom_site_fract_x
    _atom_site_fract_y
    _atom_site_fract_z
    _atom_site_occupancy
    Zr0     Zr   0.20672   0.38037   0.20669   1.000
    Zr1     Zr   0.38046   0.20674   0.20674   1.000
    Zr2     Zr   0.20615   0.20635   0.20634   1.000
    Zr3     Zr   0.20672   0.20670   0.38036   1.000
    Zr4     Zr   0.61952   0.79325   0.79324   1.000
    Zr5     Zr   0.79327   0.61963   0.79329   1.000
    Zr6     Zr   0.79384   0.79364   0.79364   1.000
    Zr7     Zr   0.79327   0.79329   0.61962   1.000
    Zr8     Zr   0.24997   0.24997   0.24996   1.000
    Zr9     Zr   0.75002   0.75003   0.75002   1.000
    O10     O    0.22834   0.31517   0.22832   1.000
    O11     O    0.22835   0.22834   0.31516   1.000
    O12     O    0.77164   0.77166   0.68482   1.000
    O13     O    0.77164   0.68483   0.77165   1.000
    O14     O    0.31522   0.22836   0.22835   1.000
    O15     O    0.22806   0.22816   0.22815   1.000
    O16     O    0.68477   0.77164   0.77163   1.000
    O17     O    0.77193   0.77184   0.77183   1.000
    N18     N    0.99999   0.50000   0.49999   1.000
    O19     O    0.91495   0.62199   0.54774   1.000
    O20     O    0.08504   0.37800   0.45223   1.000
    O21     O    0.08504   0.45224   0.37799   1.000
    O22     O    0.91495   0.54775   0.62198   1.000
    N23     N    0.99999   1.00000   0.49999   1.000
    O24     O    0.91527   0.91516   0.62214   1.000
    O25     O    0.91500   0.91502   0.54780   1.000
    O26     O    0.08499   0.08498   0.45218   1.000
    O27     O    0.08472   0.08484   0.37783   1.000
    N28     N    0.49999   0.50000   0.99995   1.000
    O29     O    0.62199   0.54775   0.91480   1.000
    O30     O    0.54770   0.62198   0.91490   1.000
    O31     O    0.45229   0.37802   0.08504   1.000
    O32     O    0.37800   0.45225   0.08500   1.000
    N33     N    0.49999   1.00000   0.49999   1.000
    O34     O    0.62199   0.91497   0.54774   1.000
    O35     O    0.54770   0.91492   0.62197   1.000
    O36     O    0.45229   0.08507   0.37801   1.000
    O37     O    0.37800   0.08502   0.45224   1.000
    N38     N    0.99999   0.50000   0.99998   1.000
    O39     O    0.91500   0.54780   0.91501   1.000
    O40     O    0.91527   0.62214   0.91515   1.000
    O41     O    0.08499   0.45219   0.08496   1.000
    O42     O    0.08472   0.37785   0.08482   1.000
    N43     N    0.49999   1.00000   0.99999   1.000
    O44     O    0.45222   0.08500   0.08499   1.000
    O45     O    0.37778   0.08482   0.08481   1.000
    O46     O    0.54777   0.91500   0.91499   1.000
    O47     O    0.62221   0.91517   0.91517   1.000
loop_
    _geom_bond_atom_site_label_1
    _geom_bond_atom_site_label_2
    _geom_bond_distance
    _geom_bond_site_symmetry_2
    _ccdc_geom_bond_type
    Zr0    O10       0.98342      .   S
    Zr8    O10       0.98342      .   S
    Zr8    O11       0.98342      .   S
    Zr3    O11       0.98342      .   S
    Zr7    O12       0.98342      .   S
    Zr9    O12       0.98342      .   S
    Zr9    O13       0.98342      .   S
    Zr5    O13       0.98342      .   S
    Zr8    O14       0.98353      .   S
    Zr1    O14       0.98353      .   S
    Zr8    O15       0.98421      .   S
    Zr2    O15       0.98421      .   S
    Zr9    O16       0.98353      .   S
    Zr4    O16       0.98353      .   S
    Zr9    O17       0.98421      .   S
    Zr6    O17       0.98421      .   S
    N18    O19       2.31819      .   S
    Zr7    O19       3.30261      .   S
    N18    O20       2.31819  1_655   S
    Zr3    O20       3.30261      .   S
    N18    O21       2.31818  1_655   S
    Zr0    O21       3.30261      .   S
    N18    O22       2.31819      .   S
    Zr5    O22       3.30261      .   S
    N23    O24       2.32000      .   S
    Zr6    O24       3.30520      .   S
    N23    O25       2.31824      .   S
    Zr7    O25       3.30292      .   S
    N23    O26       2.31825  1_665   S
    Zr3    O26       3.30293      .   S
    N23    O27       2.32005  1_665   S
    Zr2    O27       3.30512      .   S
    N28    O29       2.31807      .   S
    Zr5    O29       3.30241      .   S
    N28    O30       2.31834      .   S
    Zr4    O30       3.30282      .   S
    N28    O31       2.31834  1_556   S
    Zr1    O31       3.30282      .   S
    N28    O32       2.31806  1_556   S
    Zr0    O32       3.30242      .   S
    N33    O34       2.31815      .   S
    Zr7    O34       3.30252      .   S
    N33    O35       2.31843      .   S
    Zr4    O35       3.30285      .   S
    N33    O36       2.31833  1_565   S
    Zr1    O36       3.30283      .   S
    N33    O37       2.31810  1_565   S
    Zr3    O37       3.30248      .   S
    N38    O39       2.31823      .   S
    Zr5    O39       3.30289      .   S
    N38    O40       2.32000      .   S
    Zr6    O40       3.30522      .   S
    N38    O41       2.31833  1_656   S
    Zr0    O41       3.30301      .   S
    N38    O42       2.32007  1_656   S
    Zr2    O42       3.30530      .   S
    N43    O44       2.31866  1_566   S
    Zr1    O44       3.30360      .   S
    N43    O45       2.32015  1_566   S
    Zr2    O45       3.30555      .   S
    N43    O46       2.31868      .   S
    Zr4    O46       3.30361      .   S
    N43    O47       2.32014      .   S
    Zr6    O47       3.30559      .   S
