# CIF file generated by openbabel 2.4.90, see http://openbabel.sf.net
data_I
_chemical_name_common ''
_cell_length_a 12.318
_cell_length_b 21.045
_cell_length_c 16.643
_cell_angle_alpha 71.59
_cell_angle_beta 83.891
_cell_angle_gamma 90.005
_space_group_name_H-M_alt 'P 1'
_space_group_name_Hall 'P 1'
loop_
    _symmetry_equiv_pos_as_xyz
    x,y,z
loop_
    _atom_site_label
    _atom_site_type_symbol
    _atom_site_fract_x
    _atom_site_fract_y
    _atom_site_fract_z
    _atom_site_occupancy
    Ca0     Ca   0.37506   0.95213   0.99997   1.000
    Ca1     Ca   0.87507   0.45213   0.99997   1.000
    Ca2     Ca   0.87508   0.95213   0.99997   1.000
    Ca3     Ca   0.02084   0.09187   0.39623   1.000
    Ca4     Ca   0.02084   0.59187   0.39623   1.000
    Ca5     Ca   0.52085   0.09187   0.39623   1.000
    Ca6     Ca   0.52085   0.59187   0.39623   1.000
    Ca7     Ca   0.22919   0.29006   0.60372   1.000
    Ca8     Ca   0.22919   0.79006   0.60372   1.000
    Ca9     Ca   0.72920   0.29006   0.60372   1.000
    Ca10    Ca   0.72921   0.79006   0.60372   1.000
    Ca11    Ca   0.47919   0.40812   0.60376   1.000
    Ca12    Ca   0.47919   0.90812   0.60376   1.000
    Ca13    Ca   0.97920   0.40812   0.60376   1.000
    Ca14    Ca   0.97920   0.90812   0.60376   1.000
    Ca15    Ca   0.27083   0.20993   0.39627   1.000
    Ca16    Ca   0.27084   0.70993   0.39627   1.000
    Ca17    Ca   0.77085   0.20993   0.39627   1.000
    Ca18    Ca   0.77085   0.70993   0.39627   1.000
    H19     H    0.14998   0.17129   0.76014   1.000
    H20     H    0.14999   0.67129   0.76014   1.000
    H21     H    0.65000   0.17129   0.76014   1.000
    H22     H    0.65000   0.67129   0.76014   1.000
    H23     H    0.09999   0.05106   0.23990   1.000
    H24     H    0.10000   0.55105   0.23995   1.000
    H25     H    0.60001   0.05106   0.23990   1.000
    H26     H    0.60001   0.55105   0.23995   1.000
    H27     H    0.38387   0.12701   0.78150   1.000
    Ca28    Ca   0.37506   0.45213   0.99997   1.000
    H29     H    0.38388   0.62701   0.78150   1.000
    H30     H    0.88389   0.12701   0.78154   1.000
    H31     H    0.88389   0.62701   0.78150   1.000
    H32     H    0.46920   0.06544   0.76257   1.000
    H33     H    0.46921   0.56544   0.76257   1.000
    H34     H    0.96922   0.06544   0.76257   1.000
    H35     H    0.96922   0.56544   0.76257   1.000
    H36     H    0.02156   0.09162   0.63349   1.000
    H37     H    0.02156   0.59162   0.63349   1.000
    H38     H    0.52158   0.09162   0.63349   1.000
    H39     H    0.52158   0.59162   0.63349   1.000
    H40     H    0.43027   0.15635   0.59958   1.000
    H41     H    0.43027   0.65635   0.59958   1.000
    H42     H    0.93028   0.15635   0.59958   1.000
    H43     H    0.93029   0.65635   0.59958   1.000
    H44     H    0.22861   0.40831   0.36677   1.000
    H45     H    0.22862   0.90831   0.36677   1.000
    H46     H    0.72863   0.40831   0.36677   1.000
    H47     H    0.72863   0.90831   0.36677   1.000
    H48     H    0.31980   0.45623   0.40060   1.000
    H49     H    0.31980   0.95623   0.40060   1.000
    H50     H    0.81981   0.45623   0.40060   1.000
    H51     H    0.81982   0.95623   0.40060   1.000
    H52     H    0.36615   0.01748   0.21860   1.000
    H53     H    0.36615   0.51748   0.21860   1.000
    H54     H    0.86617   0.01748   0.21860   1.000
    H55     H    0.86617   0.51748   0.21860   1.000
    H56     H    0.28066   0.44647   0.23765   1.000
    H57     H    0.28066   0.94647   0.23765   1.000
    H58     H    0.78068   0.44647   0.23765   1.000
    H59     H    0.78068   0.94647   0.23765   1.000
    H60     H    0.35004   0.32871   0.23985   1.000
    H61     H    0.35005   0.82871   0.23985   1.000
    H62     H    0.85006   0.32871   0.23985   1.000
    H63     H    0.85006   0.82871   0.23985   1.000
    H64     H    0.40003   0.44894   0.76004   1.000
    H65     H    0.40003   0.94894   0.76004   1.000
    H66     H    0.90005   0.44894   0.76004   1.000
    H67     H    0.90005   0.94894   0.76004   1.000
    H68     H    0.11615   0.37298   0.21845   1.000
    H69     H    0.11615   0.87298   0.21845   1.000
    H70     H    0.61617   0.37298   0.21845   1.000
    H71     H    0.61617   0.87298   0.21845   1.000
    H72     H    0.03082   0.43456   0.23742   1.000
    H73     H    0.03083   0.93456   0.23742   1.000
    H74     H    0.53084   0.43456   0.23742   1.000
    H75     H    0.53084   0.93455   0.23742   1.000
    H76     H    0.47846   0.40837   0.36650   1.000
    H77     H    0.47846   0.90837   0.36650   1.000
    H78     H    0.97847   0.40837   0.36650   1.000
    H79     H    0.97847   0.90837   0.36650   1.000
    H80     H    0.06975   0.34365   0.40041   1.000
    H81     H    0.06975   0.84365   0.40041   1.000
    H82     H    0.56977   0.34365   0.40041   1.000
    H83     H    0.56977   0.84365   0.40041   1.000
    H84     H    0.27140   0.09168   0.63322   1.000
    H85     H    0.27141   0.59168   0.63322   1.000
    H86     H    0.77142   0.09168   0.63322   1.000
    H87     H    0.77142   0.59168   0.63322   1.000
    H88     H    0.18022   0.04376   0.59939   1.000
    H89     H    0.18022   0.54376   0.59939   1.000
    H90     H    0.68024   0.04376   0.59939   1.000
    H91     H    0.68024   0.54376   0.59939   1.000
    H92     H    0.13387   0.48252   0.78100   1.000
    H93     H    0.13387   0.98252   0.78139   1.000
    H94     H    0.63389   0.48252   0.78100   1.000
    H95     H    0.63389   0.98252   0.78139   1.000
    C96     C    0.72159   0.92165   0.68272   1.000
    O97     O    0.09653   0.13306   0.86856   1.000
    O98     O    0.09653   0.63306   0.86856   1.000
    O99     O    0.59654   0.13306   0.86856   1.000
    H100    H    0.21936   0.05352   0.76234   1.000
    H101    H    0.21937   0.55352   0.76234   1.000
    H102    H    0.71938   0.05352   0.76234   1.000
    H103    H    0.71938   0.55352   0.76234   1.000
    C104    C    0.01398   0.10095   0.85882   1.000
    C105    C    0.01398   0.60095   0.85882   1.000
    C106    C    0.51399   0.10095   0.85882   1.000
    C107    C    0.51400   0.60095   0.85882   1.000
    C108    C    0.47019   0.11416   0.77418   1.000
    C109    C    0.47020   0.61416   0.77418   1.000
    C110    C    0.97021   0.11416   0.77418   1.000
    C111    C    0.97021   0.61416   0.77418   1.000
    C112    C    0.02819   0.16868   0.69472   1.000
    C113    C    0.02820   0.66868   0.69472   1.000
    C114    C    0.52821   0.16868   0.69472   1.000
    C115    C    0.52821   0.66868   0.69472   1.000
    C116    C    0.01378   0.14612   0.61669   1.000
    C117    C    0.01378   0.64612   0.61669   1.000
    C118    C    0.51379   0.14612   0.61669   1.000
    C119    C    0.51380   0.64612   0.61669   1.000
    C120    C    0.08960   0.17770   0.53564   1.000
    C121    C    0.08961   0.67770   0.53564   1.000
    C122    C    0.58962   0.17770   0.53564   1.000
    C123    C    0.58962   0.67770   0.53564   1.000
    C124    C    0.47153   0.23703   0.68270   1.000
    C125    C    0.47154   0.73703   0.68270   1.000
    C126    C    0.97155   0.23703   0.68274   1.000
    C127    C    0.97155   0.73703   0.68270   1.000
    O128    O    0.40350   0.36693   0.13143   1.000
    O129    O    0.40350   0.86693   0.13143   1.000
    O130    O    0.90351   0.36693   0.13143   1.000
    O131    O    0.90351   0.86693   0.13143   1.000
    O132    O    0.03230   0.44734   0.07710   1.000
    C133    C    0.16045   0.44563   0.46448   1.000
    C134    C    0.16045   0.94563   0.46448   1.000
    C135    C    0.66047   0.44563   0.46448   1.000
    C136    C    0.66047   0.94563   0.46448   1.000
    C137    C    0.23630   0.45448   0.38346   1.000
    C138    C    0.23630   0.95448   0.38346   1.000
    C139    C    0.73632   0.45448   0.38346   1.000
    C140    C    0.73632   0.95448   0.38346   1.000
    C141    C    0.22182   0.01592   0.30538   1.000
    C142    C    0.22182   0.51592   0.30538   1.000
    C143    C    0.72183   0.01592   0.30538   1.000
    C144    C    0.72183   0.51592   0.30538   1.000
    C145    C    0.27980   0.50100   0.22598   1.000
    C146    C    0.27980   0.00000   0.22598   1.000
    C147    C    0.77981   0.50100   0.22598   1.000
    C148    C    0.77982   0.00000   0.22598   1.000
    C149    C    0.23599   0.03004   0.14134   1.000
    C150    C    0.23599   0.53004   0.14134   1.000
    C151    C    0.73600   0.03004   0.14134   1.000
    C152    C    0.73601   0.53004   0.14134   1.000
    C153    C    0.27845   0.07834   0.31728   1.000
    C154    C    0.27846   0.57834   0.31728   1.000
    C155    C    0.77847   0.07834   0.31728   1.000
    C156    C    0.77847   0.57834   0.31728   1.000
    C157    C    0.48605   0.39905   0.14117   1.000
    C158    C    0.48605   0.89905   0.14117   1.000
    C159    C    0.98606   0.39905   0.14117   1.000
    C160    C    0.98606   0.89905   0.14117   1.000
    C161    C    0.02983   0.38584   0.22582   1.000
    C162    C    0.02983   0.88583   0.22582   1.000
    C163    C    0.52984   0.38584   0.22582   1.000
    C164    C    0.52985   0.88583   0.22582   1.000
    C165    C    0.47183   0.33132   0.30528   1.000
    C166    C    0.47183   0.83132   0.30528   1.000
    C167    C    0.97184   0.33132   0.30528   1.000
    C168    C    0.97185   0.83132   0.30528   1.000
    C169    C    0.48624   0.35387   0.38330   1.000
    C170    C    0.48624   0.85387   0.38330   1.000
    C171    C    0.98625   0.35387   0.38330   1.000
    C172    C    0.98626   0.85387   0.38330   1.000
    C173    C    0.41042   0.32230   0.46436   1.000
    C174    C    0.41042   0.82230   0.46436   1.000
    C175    C    0.91043   0.32230   0.46436   1.000
    C176    C    0.91044   0.82230   0.46436   1.000
    C177    C    0.02849   0.26296   0.31725   1.000
    C178    C    0.02849   0.76296   0.31725   1.000
    C179    C    0.52850   0.26296   0.31725   1.000
    C180    C    0.52851   0.76296   0.31725   1.000
    C181    C    0.33957   0.05437   0.53551   1.000
    C182    C    0.33957   0.55437   0.53551   1.000
    C183    C    0.83958   0.05437   0.53551   1.000
    C184    C    0.83959   0.55437   0.53551   1.000
    C185    C    0.26372   0.04552   0.61653   1.000
    C186    C    0.26372   0.54552   0.61653   1.000
    C187    C    0.76373   0.04552   0.61653   1.000
    C188    C    0.76374   0.54552   0.61653   1.000
    C189    C    0.27821   0.48407   0.69462   1.000
    C190    C    0.27821   0.98407   0.69462   1.000
    C191    C    0.77822   0.48407   0.69462   1.000
    C192    C    0.77822   0.98407   0.69462   1.000
    C193    C    0.22022   0.99899   0.77402   1.000
    C194    C    0.22023   0.49899   0.77402   1.000
    C195    C    0.72024   0.99899   0.77402   1.000
    C196    C    0.72024   0.49899   0.77402   1.000
    C197    C    0.26404   0.46996   0.85860   1.000
    C198    C    0.26404   0.96995   0.85860   1.000
    C199    C    0.76405   0.46996   0.85860   1.000
    C200    C    0.76405   0.96995   0.85860   1.000
    C201    C    0.22157   0.42165   0.68272   1.000
    C202    C    0.22157   0.92165   0.68272   1.000
    C203    C    0.72158   0.42165   0.68272   1.000
    O204    O    0.59655   0.63306   0.86856   1.000
    O205    O    0.46773   0.05265   0.92290   1.000
    O206    O    0.46773   0.55265   0.92290   1.000
    O207    O    0.96774   0.05265   0.92290   1.000
    O208    O    0.96774   0.55265   0.92290   1.000
    O209    O    0.10194   0.14458   0.48311   1.000
    O210    O    0.10195   0.64458   0.48311   1.000
    O211    O    0.60196   0.14458   0.48311   1.000
    O212    O    0.60196   0.64458   0.48311   1.000
    O213    O    0.13956   0.23364   0.52091   1.000
    O214    O    0.13956   0.73364   0.52091   1.000
    O215    O    0.63958   0.23364   0.52091   1.000
    O216    O    0.63958   0.73364   0.52091   1.000
    O217    O    0.03253   0.28926   0.66698   1.000
    O218    O    0.03253   0.78926   0.66698   1.000
    O219    O    0.53254   0.28926   0.66698   1.000
    O220    O    0.53254   0.78926   0.66698   1.000
    O221    O    0.36848   0.23436   0.68747   1.000
    O222    O    0.36848   0.73436   0.68747   1.000
    O223    O    0.86849   0.23436   0.68747   1.000
    O224    O    0.86849   0.73436   0.68747   1.000
    O225    O    0.14366   0.17493   0.70002   1.000
    O226    O    0.14367   0.67493   0.70002   1.000
    O227    O    0.64368   0.17493   0.70002   1.000
    O228    O    0.64368   0.67493   0.70002   1.000
    O229    O    0.11064   0.49428   0.47916   1.000
    O230    O    0.11064   0.99428   0.47916   1.000
    O231    O    0.61065   0.49428   0.47916   1.000
    O232    O    0.61065   0.99428   0.47916   1.000
    O233    O    0.14802   0.38629   0.51705   1.000
    O234    O    0.14802   0.88628   0.51705   1.000
    O235    O    0.64803   0.38629   0.51705   1.000
    O236    O    0.64803   0.88628   0.51705   1.000
    O237    O    0.28231   0.01383   0.07724   1.000
    O238    O    0.28232   0.51383   0.07724   1.000
    O239    O    0.78233   0.01383   0.07724   1.000
    O240    O    0.78233   0.51383   0.07724   1.000
    O241    O    0.15326   0.06687   0.13164   1.000
    O242    O    0.15326   0.56687   0.13164   1.000
    O243    O    0.65328   0.06687   0.13164   1.000
    O244    O    0.65328   0.56687   0.13164   1.000
    O245    O    0.21742   0.12269   0.33304   1.000
    O246    O    0.21743   0.62269   0.33304   1.000
    O247    O    0.71744   0.12269   0.33304   1.000
    O248    O    0.71744   0.62269   0.33304   1.000
    O249    O    0.38150   0.07806   0.31259   1.000
    O250    O    0.38150   0.57806   0.31259   1.000
    O251    O    0.88151   0.07806   0.31259   1.000
    O252    O    0.88152   0.57806   0.31259   1.000
    O253    O    0.10633   0.02478   0.30011   1.000
    O254    O    0.10634   0.52478   0.30011   1.000
    O255    O    0.60635   0.02478   0.30011   1.000
    O256    O    0.60635   0.52478   0.30011   1.000
    O257    O    0.03230   0.94734   0.07710   1.000
    O258    O    0.53231   0.44734   0.07710   1.000
    O259    O    0.53231   0.94734   0.07710   1.000
    O260    O    0.39808   0.35541   0.51689   1.000
    O261    O    0.39808   0.85541   0.51689   1.000
    O262    O    0.89810   0.35541   0.51689   1.000
    O263    O    0.89810   0.85541   0.51689   1.000
    O264    O    0.36046   0.26636   0.47909   1.000
    O265    O    0.36046   0.76635   0.47909   1.000
    O266    O    0.86048   0.26636   0.47909   1.000
    O267    O    0.86048   0.76635   0.47909   1.000
    O268    O    0.46749   0.21073   0.33301   1.000
    O269    O    0.46750   0.71073   0.33301   1.000
    O270    O    0.96751   0.21073   0.33301   1.000
    O271    O    0.96751   0.71073   0.33301   1.000
    O272    O    0.13154   0.26564   0.31253   1.000
    O273    O    0.13155   0.76563   0.31253   1.000
    O274    O    0.63156   0.26564   0.31253   1.000
    O275    O    0.63156   0.76563   0.31253   1.000
    O276    O    0.35636   0.32507   0.29997   1.000
    O277    O    0.35636   0.82506   0.29997   1.000
    O278    O    0.85638   0.32507   0.29997   1.000
    O279    O    0.85638   0.82506   0.29997   1.000
    O280    O    0.38939   0.00572   0.52084   1.000
    O281    O    0.38939   0.50572   0.52084   1.000
    O282    O    0.88940   0.00572   0.52084   1.000
    O283    O    0.88941   0.50572   0.52084   1.000
    O284    O    0.35201   0.11371   0.48295   1.000
    O285    O    0.35201   0.61371   0.48295   1.000
    O286    O    0.85202   0.11371   0.48295   1.000
    O287    O    0.85202   0.61371   0.48295   1.000
    O288    O    0.21771   0.48616   0.92276   1.000
    O289    O    0.21771   0.98616   0.92276   1.000
    O290    O    0.71772   0.48616   0.92276   1.000
    O291    O    0.71773   0.98616   0.92276   1.000
    O292    O    0.34676   0.43312   0.86835   1.000
    O293    O    0.34677   0.93312   0.86835   1.000
    O294    O    0.84678   0.43312   0.86835   1.000
    O295    O    0.84678   0.93312   0.86835   1.000
    O296    O    0.28260   0.37731   0.66696   1.000
    O297    O    0.28260   0.87731   0.66696   1.000
    O298    O    0.78261   0.37731   0.66696   1.000
    O299    O    0.78262   0.87731   0.66696   1.000
    O300    O    0.11852   0.42194   0.68740   1.000
    O301    O    0.11853   0.92194   0.68740   1.000
    O302    O    0.61854   0.42194   0.68740   1.000
    O303    O    0.61854   0.92194   0.68740   1.000
    O304    O    0.39369   0.47522   0.69989   1.000
    O305    O    0.39369   0.97522   0.69989   1.000
    O306    O    0.89370   0.47522   0.69989   1.000
    O307    O    0.89371   0.97522   0.69989   1.000
loop_
    _geom_bond_atom_site_label_1
    _geom_bond_atom_site_label_2
    _geom_bond_distance
    _geom_bond_site_symmetry_2
    _ccdc_geom_bond_type
    O132   C159      1.29636  1_455   S
    O257   C160      1.29636  1_455   S
    O258   C157      1.29648      .   S
    O259   C158      1.29648      .   S
    O240   C152      1.29629      .   S
    O240   Ca1       2.32114  1_554   S
    O239   C151      1.29629      .   S
    O239   Ca2       2.32120  1_544   S
    O238   C150      1.29629      .   S
    O238   Ca28      2.32114  1_554   S
    O237   C149      1.29629      .   S
    O237   Ca0       2.32120  1_544   S
    O128   C157      1.27327      .   S
    O129   C158      1.27328      .   S
    O130   C159      1.27327      .   S
    O131   C160      1.27327      .   S
    O244   C152      1.27334      .   S
    O241   C149      1.27334      .   S
    O242   C150      1.27334      .   S
    O243   C151      1.27334      .   S
    C160   C162      1.50569  1_655   S
    C159   C161      1.50569  1_655   S
    C158   C164      1.50584      .   S
    C157   C163      1.50584      .   S
    C152   C147      1.50569      .   S
    C151   C148      1.50820      .   S
    C150   C145      1.50569      .   S
    C149   C146      1.50820      .   S
    H71    C164      1.10094      .   S
    H70    C163      1.10094      .   S
    H69    C162      1.10094      .   S
    H68    C161      1.10094      .   S
    H52    C146      1.10692      .   S
    H53    C145      1.10090      .   S
    H54    C148      1.10692      .   S
    H55    C147      1.10090      .   S
    C164   H75       1.10191      .   S
    C164   C166      1.55444      .   S
    C163   H74       1.10192      .   S
    C163   C165      1.55444      .   S
    C162   H73       1.10194      .   S
    C162   C168      1.55431  1_455   S
    C161   H72       1.10191      .   S
    C161   C167      1.55431  1_455   S
    C145   H56       1.10206      .   S
    C145   C142      1.55441      .   S
    C148   H59       1.08128  1_545   S
    C148   C143      1.56449      .   S
    C146   H57       1.08128  1_545   S
    C146   C141      1.56449      .   S
    C147   H58       1.10206      .   S
    C147   C144      1.55441      .   S
    H63    O279      0.99056      .   S
    H62    O278      0.99056      .   S
    H61    O277      0.99056      .   S
    H60    O276      0.99056      .   S
    H23    O253      0.99133      .   S
    H25    O255      0.99133      .   S
    H24    O254      0.99063      .   S
    H26    O256      0.99063      .   S
    O279   C168      1.44298      .   S
    O278   C167      1.44298      .   S
    O277   C166      1.44298      .   S
    O276   C165      1.44298      .   S
    C165   C179      1.56369      .   S
    C165   C169      1.54311      .   S
    C166   C180      1.56369      .   S
    C166   C170      1.54311      .   S
    C167   C177      1.56353  1_655   S
    C167   C171      1.54311      .   S
    C168   C178      1.56353  1_655   S
    C168   C172      1.54311      .   S
    C141   C153      1.56370      .   S
    C141   C138      1.54298  1_545   S
    C142   C154      1.56370      .   S
    C142   C137      1.54294      .   S
    C143   C155      1.56370      .   S
    C143   C140      1.54298  1_545   S
    C144   C156      1.56370      .   S
    C144   C139      1.54294      .   S
    O272   C177      1.26366      .   S
    O272   Ca15      2.39535      .   S
    O273   C178      1.26366      .   S
    O273   Ca16      2.39535      .   S
    O274   C179      1.26366      .   S
    O274   Ca17      2.39535      .   S
    O275   C180      1.26366      .   S
    O275   Ca18      2.39535      .   S
    O252   C156      1.26353      .   S
    O251   C155      1.26353      .   S
    O250   C154      1.26353      .   S
    O249   C153      1.26353      .   S
    C177   O270      1.27169  1_455   S
    C180   O269      1.27188      .   S
    C179   O268      1.27189      .   S
    C178   O271      1.27168  1_455   S
    C156   O248      1.27187      .   S
    C155   O247      1.27187      .   S
    C154   O246      1.27187      .   S
    C153   O245      1.27187      .   S
    H76    C169      1.09820      .   S
    H77    C170      1.09820      .   S
    H78    C171      1.09820      .   S
    H79    C172      1.09820      .   S
    H46    C139      1.09816      .   S
    H44    C137      1.09816      .   S
    H45    C138      1.09818      .   S
    H47    C140      1.09818      .   S
    C172   H81       1.09949  1_655   S
    C172   C176      1.51635      .   S
    C171   H80       1.09949  1_655   S
    C171   C175      1.51635      .   S
    C170   H83       1.09983      .   S
    C170   C174      1.51635      .   S
    C169   H82       1.09983      .   S
    C169   C173      1.51635      .   S
    C137   H48       1.09988      .   S
    C137   C133      1.51626      .   S
    C140   H51       1.09988      .   S
    C140   C136      1.51626      .   S
    C139   H50       1.09988      .   S
    C139   C135      1.51626      .   S
    C138   H49       1.09988      .   S
    C138   C134      1.51626      .   S
    Ca4    O210      2.37486      .   S
    Ca5    O211      2.37486      .   S
    Ca6    O212      2.37486      .   S
    Ca3    O209      2.37486      .   S
    Ca16   O285      2.37568      .   S
    Ca18   O287      2.37568      .   S
    Ca17   O286      2.37568      .   S
    Ca15   O284      2.37568      .   S
    C175   O266      1.26899      .   S
    C175   O262      1.27657      .   S
    C174   O265      1.26899      .   S
    C174   O261      1.27657      .   S
    C173   O264      1.26899      .   S
    C173   O260      1.27657      .   S
    C176   O267      1.26899      .   S
    C176   O263      1.27657      .   S
    C133   O229      1.26910      .   S
    C133   O233      1.27667      .   S
    C135   O231      1.26910      .   S
    C135   O235      1.27667      .   S
    C134   O230      1.26910      .   S
    C134   O234      1.27667      .   S
    C136   O232      1.26909      .   S
    C136   O236      1.27667      .   S
    O285   C182      1.27661      .   S
    O286   C183      1.27661      .   S
    O284   C181      1.27661      .   S
    O287   C184      1.27661      .   S
    O209   C120      1.27657      .   S
    O210   C121      1.27657      .   S
    O211   C122      1.27657      .   S
    O212   C123      1.27657      .   S
    O263   Ca14      2.37472      .   S
    O262   Ca13      2.37472      .   S
    O261   Ca12      2.37472      .   S
    O260   Ca11      2.37472      .   S
    O233   Ca7       2.37561      .   S
    O236   Ca10      2.37561      .   S
    O235   Ca9       2.37561      .   S
    O234   Ca8       2.37561      .   S
    O282   C183      1.26903      .   S
    O281   C182      1.26903      .   S
    O283   C184      1.26904      .   S
    O280   C181      1.26903      .   S
    O213   C120      1.26899      .   S
    O214   C121      1.26899      .   S
    O215   C122      1.26899      .   S
    O216   C123      1.26899      .   S
    C181   C185      1.51627      .   S
    C184   C188      1.51627      .   S
    C183   C187      1.51627      .   S
    C182   C186      1.51627      .   S
    C122   C118      1.51625      .   S
    C120   C116      1.51625      .   S
    C123   C119      1.51625      .   S
    C121   C117      1.51625      .   S
    H90    C187      1.09988      .   S
    H91    C188      1.09988      .   S
    H89    C186      1.09988      .   S
    H88    C185      1.09988      .   S
    H40    C118      1.09982      .   S
    H41    C119      1.09982      .   S
    H42    C116      1.09949  1_655   S
    H43    C117      1.09949  1_655   S
    Ca8    O222      2.39543      .   S
    Ca9    O223      2.39544      .   S
    Ca10   O224      2.39543      .   S
    Ca7    O221      2.39544      .   S
    Ca11   O302      2.39432      .   S
    Ca12   O303      2.39433      .   S
    Ca13   O300      2.39405  1_655   S
    Ca14   O301      2.39405  1_655   S
    C188   H87       1.09816      .   S
    C188   C191      1.54304      .   S
    C187   H86       1.09816      .   S
    C187   C192      1.54308  1_545   S
    C186   H85       1.09816      .   S
    C186   C189      1.54304      .   S
    C185   H84       1.09816      .   S
    C185   C190      1.54308  1_545   S
    C117   H37       1.09817      .   S
    C117   C113      1.54327      .   S
    C116   H36       1.09817      .   S
    C116   C112      1.54327      .   S
    C118   H38       1.09817      .   S
    C118   C114      1.54327      .   S
    C119   H39       1.09817      .   S
    C119   C115      1.54327      .   S
    O299   C96       1.27187      .   S
    O298   C203      1.27187      .   S
    O297   C202      1.27187      .   S
    O296   C201      1.27187      .   S
    O218   C127      1.27179  1_455   S
    O219   C124      1.27199      .   S
    O220   C125      1.27199      .   S
    O217   C126      1.27170  1_455   S
    C127   O224      1.26361      .   S
    C127   C113      1.56342  1_655   S
    C124   O221      1.26361      .   S
    C124   C114      1.56357      .   S
    C125   O222      1.26361      .   S
    C125   C115      1.56357      .   S
    C96    O303      1.26353      .   S
    C96    C192      1.56370      .   S
    C203   O302      1.26354      .   S
    C203   C191      1.56370      .   S
    C202   O301      1.26354      .   S
    C202   C190      1.56370      .   S
    C201   O300      1.26354      .   S
    C201   C189      1.56370      .   S
    C126   O223      1.26365      .   S
    C126   C112      1.56349  1_655   S
    C192   O307      1.44299      .   S
    C192   C195      1.55446      .   S
    C191   O306      1.44299      .   S
    C191   C196      1.55440      .   S
    C190   O305      1.44300      .   S
    C190   C193      1.55446      .   S
    C189   O304      1.44299      .   S
    C189   C194      1.55440      .   S
    C113   O226      1.44296      .   S
    C113   C111      1.55431  1_455   S
    C114   O227      1.44296      .   S
    C114   C108      1.55444      .   S
    C115   O228      1.44296      .   S
    C115   C109      1.55444      .   S
    C112   O225      1.44296      .   S
    C112   C110      1.55431  1_455   S
    O307   H67       0.99048      .   S
    O304   H64       0.99049      .   S
    O305   H65       0.99048      .   S
    O306   H66       0.99049      .   S
    O227   H21       0.99056      .   S
    O226   H20       0.99056      .   S
    O225   H19       0.99056      .   S
    O228   H22       0.99056      .   S
    H100   C193      1.10201  1_545   S
    H101   C194      1.10203      .   S
    H102   C195      1.10201  1_545   S
    H103   C196      1.10203      .   S
    H35    C111      1.10199      .   S
    H34    C110      1.10199      .   S
    H33    C109      1.10199      .   S
    H32    C108      1.10199      .   S
    C196   H94       1.10153      .   S
    C196   C199      1.50484      .   S
    C195   H95       1.10087      .   S
    C195   C200      1.50489      .   S
    C194   H92       1.10153      .   S
    C194   C197      1.50484      .   S
    C193   H93       1.10087      .   S
    C193   C198      1.50489      .   S
    C111   H31       1.10087      .   S
    C111   C105      1.50554  1_655   S
    C110   H30       1.10093      .   S
    C110   C104      1.50554  1_655   S
    C109   H29       1.10087      .   S
    C109   C107      1.50569      .   S
    C108   H27       1.10087      .   S
    C108   C106      1.50569      .   S
    C197   O292      1.27337      .   S
    C197   O288      1.29713      .   S
    C198   O293      1.27336      .   S
    C198   O289      1.29714      .   S
    C199   O294      1.27337      .   S
    C199   O290      1.29713      .   S
    C200   O295      1.27336      .   S
    C200   O291      1.29713      .   S
    C105   O98       1.27328      .   S
    C105   O208      1.29644  1_455   S
    C106   O99       1.27328      .   S
    C106   O205      1.29655      .   S
    C107   O204      1.27328      .   S
    C107   O206      1.29657      .   S
    C104   O97       1.27327      .   S
    C104   O207      1.29643  1_455   S
    O205   Ca0       2.32331  1_545   S
    O206   Ca28      2.32329      .   S
    O207   Ca2       2.32331  1_545   S
    O208   Ca1       2.32329      .   S
    O209   Ca15      2.53226      .   S
    O210   Ca16      2.53226      .   S
    O211   Ca17      2.53226      .   S
    O212   Ca18      2.53225      .   S
    O213   Ca7       2.42603      .   S
    O213   Ca15      2.66582      .   S
    O214   Ca8       2.42602      .   S
    O214   Ca16      2.66582      .   S
    O215   Ca9       2.42602      .   S
    O215   Ca17      2.66582      .   S
    O216   Ca10      2.42602      .   S
    O216   Ca18      2.66582      .   S
    O217   Ca7       2.53442      .   S
    O217   Ca13      2.50611  1_455   S
    O218   Ca8       2.53441      .   S
    O218   Ca14      2.50611  1_455   S
    O219   Ca9       2.53441      .   S
    O219   Ca11      2.50622      .   S
    O220   Ca10      2.53441      .   S
    O220   Ca12      2.50622      .   S
    O225   Ca7       2.59552      .   S
    O226   Ca8       2.59552      .   S
    O227   Ca9       2.59552      .   S
    O228   Ca10      2.59552      .   S
    O229   Ca4       2.42518      .   S
    O229   Ca13      2.66811  1_455   S
    O230   Ca3       2.42526  1_565   S
    O230   Ca14      2.66811  1_455   S
    O231   Ca6       2.42518      .   S
    O231   Ca11      2.66829      .   S
    O232   Ca5       2.42526  1_565   S
    O232   Ca12      2.66829      .   S
    O233   Ca13      2.52952  1_455   S
    O234   Ca14      2.52952  1_455   S
    O235   Ca11      2.52978      .   S
    O236   Ca12      2.52978      .   S
    O245   Ca3       2.53326      .   S
    O245   Ca15      2.50577      .   S
    O246   Ca4       2.53325      .   S
    O246   Ca16      2.50577      .   S
    O247   Ca5       2.53325      .   S
    O247   Ca17      2.50577      .   S
    O248   Ca6       2.53325      .   S
    O248   Ca18      2.50577      .   S
    O249   Ca5       2.39434      .   S
    O250   Ca6       2.39434      .   S
    O251   Ca3       2.39405  1_655   S
    O252   Ca4       2.39407  1_655   S
    O253   Ca3       2.59428      .   S
    O253   C141      1.44299      .   S
    O254   Ca4       2.59428      .   S
    O254   C142      1.44299      .   S
    O255   Ca5       2.59428      .   S
    O255   C143      1.44299      .   S
    O256   Ca6       2.59428      .   S
    O256   C144      1.44299      .   S
    O128   Ca28      2.41031  1_554   S
    O129   Ca0       2.41032  1_554   S
    O130   Ca1       2.41031  1_554   S
    O131   Ca2       2.41031  1_554   S
    O132   Ca1       2.41996  1_454   S
    O257   Ca2       2.41996  1_454   S
    O258   Ca28      2.42025  1_554   S
    O259   Ca0       2.42025  1_554   S
    O260   Ca7       2.53222      .   S
    O261   Ca8       2.53222      .   S
    O262   Ca9       2.53222      .   S
    O263   Ca10      2.53222      .   S
    O264   Ca7       2.66569      .   S
    O264   Ca15      2.42615      .   S
    O265   Ca8       2.66569      .   S
    O265   Ca16      2.42615      .   S
    O266   Ca9       2.66569      .   S
    O266   Ca17      2.42615      .   S
    O267   Ca10      2.66569      .   S
    O267   Ca18      2.42615      .   S
    O268   Ca5       2.50622      .   S
    O268   Ca15      2.53441      .   S
    O269   Ca6       2.50622      .   S
    O269   Ca16      2.53442      .   S
    O270   Ca3       2.50611  1_655   S
    O270   Ca17      2.53441      .   S
    O271   Ca4       2.50611  1_655   S
    O271   Ca18      2.53442      .   S
    O276   Ca15      2.59552      .   S
    O277   Ca16      2.59552      .   S
    O278   Ca17      2.59552      .   S
    O279   Ca18      2.59552      .   S
    O280   Ca5       2.66838      .   S
    O280   Ca12      2.42520  1_545   S
    O281   Ca6       2.66838      .   S
    O281   Ca11      2.42513      .   S
    O282   Ca3       2.66819  1_655   S
    O282   Ca14      2.42520  1_545   S
    O283   Ca4       2.66819  1_655   S
    O283   Ca13      2.42513      .   S
    O284   Ca5       2.52987      .   S
    O285   Ca6       2.52987      .   S
    O286   Ca3       2.52960  1_655   S
    O287   Ca4       2.52961  1_655   S
    O288   Ca28      2.42283      .   S
    O289   Ca0       2.42283      .   S
    O290   Ca1       2.42283      .   S
    O291   Ca2       2.42282      .   S
    O292   Ca28      2.40744      .   S
    O293   Ca0       2.40744      .   S
    O294   Ca1       2.40744      .   S
    O295   Ca2       2.40744      .   S
    O296   Ca7       2.50588      .   S
    O296   Ca11      2.53330      .   S
    O297   Ca8       2.50588      .   S
    O297   Ca12      2.53330      .   S
    O298   Ca9       2.50588      .   S
    O298   Ca13      2.53330      .   S
    O299   Ca10      2.50588      .   S
    O299   Ca14      2.53330      .   S
    O304   Ca11      2.59441      .   S
    O305   Ca12      2.59440      .   S
    O306   Ca13      2.59441      .   S
    O307   Ca14      2.59440      .   S
