# CIF file generated by openbabel 2.4.90, see http://openbabel.sf.net
data_I
_chemical_name_common ''
_cell_length_a 12.318
_cell_length_b 21.045
_cell_length_c 16.643
_cell_angle_alpha 71.59
_cell_angle_beta 83.891
_cell_angle_gamma 90.005
_space_group_name_H-M_alt 'P 1'
_space_group_name_Hall 'P 1'
loop_
    _symmetry_equiv_pos_as_xyz
    x,y,z
loop_
    _atom_site_label
    _atom_site_type_symbol
    _atom_site_fract_x
    _atom_site_fract_y
    _atom_site_fract_z
    _atom_site_occupancy
    Zr0     Zr   0.37506   0.45213   0.99997   1.000
    Zr1     Zr   0.37506   0.95213   0.99997   1.000
    Zr2     Zr   0.87507   0.45213   0.99997   1.000
    Zr3     Zr   0.87508   0.95213   0.99997   1.000
    Zr4     Zr   0.02084   0.09187   0.39623   1.000
    Zr5     Zr   0.02084   0.59187   0.39623   1.000
    Zr6     Zr   0.52085   0.09187   0.39623   1.000
    Zr7     Zr   0.52085   0.59187   0.39623   1.000
    Zr8     Zr   0.22919   0.29006   0.60372   1.000
    Zr9     Zr   0.22919   0.79006   0.60372   1.000
    Zr10    Zr   0.72920   0.29006   0.60372   1.000
    Zr11    Zr   0.72921   0.79006   0.60372   1.000
    Zr12    Zr   0.47919   0.40812   0.60376   1.000
    Zr13    Zr   0.47919   0.90812   0.60376   1.000
    Zr14    Zr   0.97920   0.40812   0.60376   1.000
    Zr15    Zr   0.97920   0.90812   0.60376   1.000
    Zr16    Zr   0.27083   0.20993   0.39627   1.000
    Zr17    Zr   0.27084   0.70993   0.39627   1.000
    Zr18    Zr   0.77085   0.20993   0.39627   1.000
    Zr19    Zr   0.77085   0.70993   0.39627   1.000
    N20     N    0.47822   0.34339   0.30277   1.000
    O21     O    0.45843   0.36258   0.43155   1.000
    O22     O    0.48620   0.24735   0.33369   1.000
    O23     O    0.58971   0.29059   0.32858   1.000
    N24     N    0.97822   0.34339   0.30277   1.000
    O25     O    0.98620   0.24735   0.33369   1.000
    O26     O    0.95843   0.36258   0.43155   1.000
    O27     O    0.08970   0.29059   0.32858   1.000
    N28     N    0.97822   0.84339   0.30277   1.000
    O29     O    0.95844   0.86258   0.43155   1.000
    O30     O    0.98620   0.74735   0.33369   1.000
    O31     O    0.08971   0.79059   0.32858   1.000
    N32     N    0.52182   0.15660   0.69722   1.000
    O33     O    0.41033   0.20941   0.67141   1.000
    O34     O    0.51384   0.25265   0.66630   1.000
    O35     O    0.54161   0.13741   0.56845   1.000
    O36     O    0.47161   0.07950   0.82933   1.000
    N37     N    0.72821   0.00504   0.30290   1.000
    O38     O    0.70842   0.92161   0.43164   1.000
    O39     O    0.73618   0.08568   0.33378   1.000
    O40     O    0.83969   0.04500   0.32866   1.000
    O41     O    0.77846   0.99401   0.17075   1.000
    N42     N    0.47822   0.84339   0.30277   1.000
    O43     O    0.45843   0.86258   0.43155   1.000
    O44     O    0.58971   0.79059   0.32858   1.000
    O45     O    0.48620   0.74735   0.33369   1.000
    N46     N    0.72821   0.50510   0.30291   1.000
    O47     O    0.77846   0.49404   0.17076   1.000
    O48     O    0.70841   0.42164   0.43165   1.000
    O49     O    0.73618   0.58570   0.33378   1.000
    O50     O    0.83969   0.54503   0.32866   1.000
    N51     N    0.22820   0.50510   0.30291   1.000
    O52     O    0.27844   0.49404   0.17076   1.000
    O53     O    0.23616   0.58570   0.33378   1.000
    O54     O    0.33969   0.54503   0.32866   1.000
    O55     O    0.20840   0.42164   0.43165   1.000
    N56     N    0.02182   0.65660   0.69722   1.000
    O57     O    0.01384   0.75265   0.66630   1.000
    O58     O    0.91033   0.70941   0.67141   1.000
    O59     O    0.04161   0.63741   0.56845   1.000
    O60     O    0.97161   0.57949   0.82933   1.000
    N61     N    0.77184   0.49490   0.69706   1.000
    O62     O    0.76388   0.41429   0.66620   1.000
    O63     O    0.79164   0.57836   0.56834   1.000
    O64     O    0.66035   0.45496   0.67132   1.000
    N65     N    0.22820   0.00504   0.30290   1.000
    O66     O    0.23616   0.08568   0.33378   1.000
    O67     O    0.20840   0.92161   0.43164   1.000
    O68     O    0.27844   0.99401   0.17075   1.000
    O69     O    0.33969   0.04500   0.32866   1.000
    N70     N    0.77184   0.99490   0.69709   1.000
    O71     O    0.79164   0.07836   0.56835   1.000
    O72     O    0.76388   0.91429   0.66621   1.000
    O73     O    0.66035   0.95496   0.67133   1.000
    N74     N    0.52182   0.65660   0.69722   1.000
    O75     O    0.54161   0.63741   0.56845   1.000
    O76     O    0.51384   0.75265   0.66630   1.000
    O77     O    0.47161   0.57949   0.82933   1.000
    O78     O    0.41033   0.70941   0.67141   1.000
    N79     N    0.27183   0.99490   0.69709   1.000
    O80     O    0.26386   0.91429   0.66621   1.000
    O81     O    0.16035   0.95496   0.67133   1.000
    O82     O    0.29162   0.07836   0.56835   1.000
    N83     N    0.27183   0.49490   0.69706   1.000
    O84     O    0.29163   0.57836   0.56834   1.000
    O85     O    0.26386   0.41429   0.66620   1.000
    O86     O    0.16035   0.45496   0.67132   1.000
    N87     N    0.02182   0.15660   0.69723   1.000
    O88     O    0.04160   0.13741   0.56845   1.000
    O89     O    0.91033   0.20941   0.67141   1.000
    O90     O    0.01384   0.25265   0.66630   1.000
    O91     O    0.97161   0.07950   0.82933   1.000
    O92     O    0.39123   0.82193   0.42681   1.000
    O93     O    0.64124   0.96462   0.42692   1.000
    O94     O    0.60882   0.67806   0.57318   1.000
    O95     O    0.39122   0.32193   0.42681   1.000
    O96     O    0.85881   0.53534   0.57306   1.000
    O97     O    0.60881   0.17806   0.57318   1.000
    O98     O    0.14123   0.96462   0.42692   1.000
    O99     O    0.30024   0.97539   0.82242   1.000
    O100    O    0.44985   0.88651   0.17744   1.000
    O101    O    0.94985   0.38651   0.17744   1.000
    O102    O    0.80025   0.47539   0.82241   1.000
    O103    O    0.10881   0.67806   0.57318   1.000
    O104    O    0.89123   0.32193   0.42681   1.000
    O105    O    0.35880   0.53534   0.57306   1.000
    O106    O    0.14123   0.46465   0.42692   1.000
    O107    O    0.44985   0.38651   0.17744   1.000
    O108    O    0.30024   0.47539   0.82241   1.000
    O109    O    0.89124   0.82193   0.42681   1.000
    O110    O    0.10880   0.17806   0.57318   1.000
    O111    O    0.85881   0.03534   0.57307   1.000
    O112    O    0.94986   0.88651   0.17744   1.000
    O113    O    0.80025   0.97539   0.82242   1.000
    O114    O    0.35880   0.03534   0.57307   1.000
    O115    O    0.64124   0.46465   0.42692   1.000
    O116    O    0.34692   0.96407   0.66121   1.000
    O117    O    0.90312   0.29463   0.33870   1.000
    O118    O    0.40311   0.79463   0.33870   1.000
    O119    O    0.65312   0.53592   0.33879   1.000
    O120    O    0.90312   0.79463   0.33870   1.000
    O121    O    0.08997   0.21251   0.65922   1.000
    O122    O    0.58998   0.21251   0.65922   1.000
    O123    O    0.65312   0.03590   0.33879   1.000
    O124    O    0.15337   0.53402   0.34998   1.000
    O125    O    0.09667   0.70903   0.65009   1.000
    O126    O    0.84667   0.46598   0.65000   1.000
    O127    O    0.15310   0.03590   0.33879   1.000
    O128    O    0.84694   0.96407   0.66121   1.000
    O129    O    0.59667   0.70903   0.65009   1.000
    O130    O    0.41005   0.28748   0.34077   1.000
    O131    O    0.34665   0.46598   0.65000   1.000
loop_
    _geom_bond_atom_site_label_1
    _geom_bond_atom_site_label_2
    _geom_bond_distance
    _geom_bond_site_symmetry_2
    _ccdc_geom_bond_type
    N20    O21       2.29162      .   S
    Zr12   O21       3.33017      .   S
    N20    O22       1.92715      .   S
    Zr6    O22       3.14886      .   S
    N20    O23       1.76916      .   S
    Zr18   O23       2.90800      .   S
    N24    O25       1.92715      .   S
    Zr4    O25       3.14882  1_455   S
    N24    O26       2.29162      .   S
    Zr14   O26       3.33018      .   S
    N24    O27       1.76908  1_655   S
    Zr16   O27       2.90791      .   S
    N28    O29       2.29162      .   S
    Zr15   O29       3.33018      .   S
    N28    O30       1.92715      .   S
    Zr5    O30       3.14882  1_455   S
    N28    O31       1.76908  1_655   S
    Zr17   O31       2.90791      .   S
    N32    O33       1.76916      .   S
    Zr8    O33       2.90802      .   S
    N32    O34       1.92715      .   S
    Zr12   O34       3.14886      .   S
    N32    O35       2.29157      .   S
    Zr6    O35       3.33020      .   S
    N32    O36       2.30362      .   S
    Zr1    O36       3.33723  1_565   S
    N37    O38       2.29038  1_545   S
    Zr11   O38       3.32863      .   S
    N37    O39       1.92739      .   S
    Zr18   O39       3.14870      .   S
    N37    O40       1.76903      .   S
    Zr4    O40       2.90702  1_455   S
    N37    O41       2.30368  1_545   S
    Zr3    O41       3.33695  1_556   S
    N42    O43       2.29162      .   S
    Zr13   O43       3.33017      .   S
    N42    O44       1.76916      .   S
    Zr19   O44       2.90800      .   S
    N42    O45       1.92715      .   S
    Zr7    O45       3.14886      .   S
    N46    O47       2.30394      .   S
    Zr2    O47       3.33726  1_556   S
    N46    O48       2.29063      .   S
    Zr10   O48       3.32893      .   S
    N46    O49       1.92680      .   S
    Zr19   O49       3.14814      .   S
    N46    O50       1.76870      .   S
    Zr5    O50       2.90676  1_455   S
    N51    O52       2.30394      .   S
    Zr0    O52       3.33726  1_556   S
    N51    O53       1.92680      .   S
    Zr17   O53       3.14814      .   S
    N51    O54       1.76877      .   S
    Zr7    O54       2.90697      .   S
    N51    O55       2.29063      .   S
    Zr8    O55       3.32893      .   S
    N56    O57       1.92715      .   S
    Zr15   O57       3.14882  1_655   S
    N56    O58       1.76907  1_455   S
    Zr11   O58       2.90793      .   S
    N56    O59       2.29157      .   S
    Zr5    O59       3.33021      .   S
    N56    O60       2.30361  1_455   S
    Zr2    O60       3.33720      .   S
    N61    O62       1.92669      .   S
    Zr10   O62       3.14806      .   S
    N61    O63       2.29049      .   S
    Zr19   O63       3.32886      .   S
    N61    O64       1.76870      .   S
    Zr12   O64       2.90686      .   S
    N65    O66       1.92739      .   S
    Zr16   O66       3.14871      .   S
    N65    O67       2.29038  1_545   S
    Zr9    O67       3.32863      .   S
    N65    O68       2.30368  1_545   S
    Zr1    O68       3.33695  1_556   S
    N65    O69       1.76910      .   S
    Zr6    O69       2.90724      .   S
    N70    O71       2.29062  1_565   S
    Zr18   O71       3.32897      .   S
    N70    O72       1.92680      .   S
    Zr11   O72       3.14818      .   S
    N70    O73       1.76877      .   S
    Zr13   O73       2.90696      .   S
    N74    O75       2.29157      .   S
    Zr7    O75       3.33020      .   S
    N74    O76       1.92715      .   S
    Zr13   O76       3.14886      .   S
    N74    O77       2.30362      .   S
    Zr0    O77       3.33723      .   S
    N74    O78       1.76916      .   S
    Zr9    O78       2.90801      .   S
    N79    O80       1.92680      .   S
    Zr9    O80       3.14818      .   S
    N79    O81       1.76871      .   S
    Zr15   O81       2.90675  1_655   S
    N79    O82       2.29062  1_565   S
    Zr16   O82       3.32897      .   S
    N83    O84       2.29049      .   S
    Zr17   O84       3.32886      .   S
    N83    O85       1.92669      .   S
    Zr8    O85       3.14806      .   S
    N83    O86       1.76863      .   S
    Zr14   O86       2.90665  1_655   S
    N87    O88       2.29161      .   S
    Zr4    O88       3.33025      .   S
    N87    O89       1.76908  1_455   S
    Zr10   O89       2.90794      .   S
    N87    O90       1.92715      .   S
    Zr14   O90       3.14882  1_655   S
    N87    O91       2.30358  1_455   S
    Zr3    O91       3.33718  1_565   S
    Zr9    O92       3.25639      .   S
    N42    O92       2.13410      .   S
    Zr13   O93       3.25566      .   S
    N37    O93       2.13344  1_545   S
    Zr19   O94       3.25642      .   S
    N74    O94       2.13406      .   S
    Zr8    O95       3.25639      .   S
    N20    O95       2.13410      .   S
    Zr5    O96       3.25548  1_455   S
    N61    O96       2.13328      .   S
    Zr18   O97       3.25642      .   S
    N32    O97       2.13406      .   S
    Zr15   O98       3.25553  1_655   S
    N65    O98       2.13340  1_545   S
    Zr1    O99       3.08003      .   S
    N79    O99       2.06324      .   S
    Zr1    O100      3.07943  1_556   S
    N42    O100      2.06295      .   S
    Zr2    O101      3.07939  1_556   S
    N24    O101      2.06294      .   S
    Zr2    O102      3.08020      .   S
    N61    O102      2.06341      .   S
    Zr17   O103      3.25638      .   S
    N56    O103      2.13403      .   S
    Zr10   O104      3.25636      .   S
    N24    O104      2.13407      .   S
    Zr7    O105      3.25561      .   S
    N83    O105      2.13332      .   S
    Zr14   O106      3.25557  1_655   S
    N51    O106      2.13345      .   S
    Zr0    O107      3.07943  1_556   S
    N20    O107      2.06295      .   S
    Zr0    O108      3.08020      .   S
    N83    O108      2.06341      .   S
    Zr11   O109      3.25636      .   S
    N28    O109      2.13407      .   S
    Zr16   O110      3.25641      .   S
    N87    O110      2.13406      .   S
    Zr4    O111      3.25559  1_455   S
    N70    O111      2.13342  1_565   S
    Zr3    O112      3.07939  1_556   S
    N28    O112      2.06294      .   S
    Zr3    O113      3.08003      .   S
    N70    O113      2.06324      .   S
    Zr6    O114      3.25573      .   S
    N79    O114      2.13345  1_565   S
    Zr12   O115      3.25570      .   S
    N46    O115      2.13348      .   S
    N79    O116      1.32676      .   S
    Zr13   O116      2.30968      .   S
    N24    O117      1.32704      .   S
    Zr18   O117      2.31049      .   S
    N42    O118      1.32708      .   S
    Zr17   O118      2.31053      .   S
    N46    O119      1.32676      .   S
    Zr7    O119      2.30963      .   S
    N28    O120      1.32704      .   S
    Zr19   O120      2.31049      .   S
    N87    O121      1.38058      .   S
    Zr8    O121      2.27330      .   S
    N32    O122      1.38062      .   S
    Zr10   O122      2.27334      .   S
    N37    O123      1.32715      .   S
    Zr6    O123      2.31004      .   S
    N51    O124      1.40755      .   S
    Zr5    O124      2.25053      .   S
    N56    O125      1.40784      .   S
    Zr9    O125      2.25134      .   S
    N61    O126      1.40742      .   S
    Zr14   O126      2.25048      .   S
    N65    O127      1.32715      .   S
    Zr4    O127      2.31004      .   S
    N70    O128      1.32676      .   S
    Zr15   O128      2.30968      .   S
    N74    O129      1.40788      .   S
    Zr11   O129      2.25139      .   S
    N20    O130      1.38062      .   S
    Zr16   O130      2.27334      .   S
    N83    O131      1.40742      .   S
    Zr12   O131      2.25048      .   S
