# CIF file generated by openbabel 2.4.90, see http://openbabel.sf.net
data_I
_chemical_name_common ''
_cell_length_a 12.318
_cell_length_b 21.045
_cell_length_c 16.643
_cell_angle_alpha 71.59
_cell_angle_beta 83.891
_cell_angle_gamma 90.005
_space_group_name_H-M_alt 'P 1'
_space_group_name_Hall 'P 1'
loop_
    _symmetry_equiv_pos_as_xyz
    x,y,z
loop_
    _atom_site_label
    _atom_site_type_symbol
    _atom_site_fract_x
    _atom_site_fract_y
    _atom_site_fract_z
    _atom_site_occupancy
    Zr0     Zr   0.37506   0.45213   0.99997   1.000
    Zr1     Zr   0.37506   0.95213   0.99997   1.000
    Zr2     Zr   0.87507   0.45213   0.99997   1.000
    Zr3     Zr   0.87508   0.95213   0.99997   1.000
    Zr4     Zr   0.02084   0.09187   0.39623   1.000
    Zr5     Zr   0.02084   0.59187   0.39623   1.000
    Zr6     Zr   0.52085   0.09187   0.39623   1.000
    Zr7     Zr   0.52085   0.59187   0.39623   1.000
    Zr8     Zr   0.22919   0.29006   0.60372   1.000
    Zr9     Zr   0.22919   0.79006   0.60372   1.000
    Zr10    Zr   0.72920   0.29006   0.60372   1.000
    Zr11    Zr   0.72921   0.79006   0.60372   1.000
    Zr12    Zr   0.12496   0.04787   0.30000   1.000
    Zr13    Zr   0.12497   0.54787   0.30000   1.000
    Zr14    Zr   0.62498   0.04787   0.30000   1.000
    Zr15    Zr   0.62498   0.54787   0.30000   1.000
    Zr16    Zr   0.47919   0.40812   0.60376   1.000
    Zr17    Zr   0.47919   0.90812   0.60376   1.000
    Zr18    Zr   0.97920   0.40812   0.60376   1.000
    Zr19    Zr   0.97920   0.90812   0.60376   1.000
    Zr20    Zr   0.27083   0.20993   0.39627   1.000
    Zr21    Zr   0.27084   0.70993   0.39627   1.000
    Zr22    Zr   0.77085   0.20993   0.39627   1.000
    Zr23    Zr   0.77085   0.70993   0.39627   1.000
    N24     N    0.47822   0.34339   0.30277   1.000
    O25     O    0.38652   0.31080   0.42209   1.000
    O26     O    0.39693   0.29077   0.37022   1.000
    O27     O    0.39591   0.30545   0.32544   1.000
    O28     O    0.46595   0.39656   0.17065   1.000
    O29     O    0.45843   0.36258   0.43155   1.000
    O30     O    0.39593   0.33307   0.43154   1.000
    O31     O    0.43375   0.37646   0.18423   1.000
    O32     O    0.48620   0.24735   0.33369   1.000
    O33     O    0.42369   0.27686   0.33370   1.000
    O34     O    0.58971   0.29059   0.32858   1.000
    N35     N    0.97822   0.34339   0.30277   1.000
    O36     O    0.89592   0.30545   0.32544   1.000
    O37     O    0.98620   0.24735   0.33369   1.000
    O38     O    0.92370   0.27686   0.33370   1.000
    O39     O    0.93376   0.37646   0.18423   1.000
    O40     O    0.88653   0.31080   0.42209   1.000
    O41     O    0.89694   0.29077   0.37022   1.000
    O42     O    0.95843   0.36258   0.43155   1.000
    O43     O    0.89593   0.33307   0.43154   1.000
    O44     O    0.96595   0.39656   0.17065   1.000
    O45     O    0.08970   0.29059   0.32858   1.000
    N46     N    0.97822   0.84339   0.30277   1.000
    O47     O    0.95844   0.86258   0.43155   1.000
    O48     O    0.89594   0.83306   0.43154   1.000
    O49     O    0.96596   0.89656   0.17065   1.000
    O50     O    0.89592   0.80545   0.32544   1.000
    O51     O    0.98620   0.74735   0.33369   1.000
    O52     O    0.92370   0.77686   0.33370   1.000
    O53     O    0.88653   0.81080   0.42209   1.000
    O54     O    0.89694   0.79077   0.37022   1.000
    O55     O    0.93376   0.87646   0.18423   1.000
    O56     O    0.08971   0.79059   0.32858   1.000
    N57     N    0.52182   0.15660   0.69722   1.000
    O58     O    0.60413   0.19455   0.67455   1.000
    O59     O    0.41033   0.20941   0.67141   1.000
    O60     O    0.57635   0.22313   0.66629   1.000
    O61     O    0.51384   0.25265   0.66630   1.000
    O62     O    0.54161   0.13741   0.56845   1.000
    O63     O    0.60411   0.16693   0.56846   1.000
    O64     O    0.47161   0.07950   0.82933   1.000
    O65     O    0.60310   0.20923   0.62977   1.000
    O66     O    0.61351   0.18919   0.57791   1.000
    N67     N    0.72821   0.00504   0.30290   1.000
    O68     O    0.70842   0.92161   0.43164   1.000
    O69     O    0.64591   0.95112   0.43165   1.000
    O70     O    0.67368   0.05616   0.33377   1.000
    O71     O    0.69971   0.04516   0.30971   1.000
    O72     O    0.73618   0.08568   0.33378   1.000
    O73     O    0.64698   0.02406   0.37030   1.000
    O74     O    0.67301   0.01306   0.34624   1.000
    O75     O    0.63657   0.97812   0.42218   1.000
    O76     O    0.83969   0.04500   0.32866   1.000
    O77     O    0.67194   0.02068   0.30148   1.000
    O78     O    0.64590   0.03168   0.32554   1.000
    O79     O    0.68367   0.03121   0.25936   1.000
    O80     O    0.77846   0.99401   0.17075   1.000
    N81     N    0.47822   0.84339   0.30277   1.000
    O82     O    0.43375   0.87646   0.18423   1.000
    O83     O    0.38652   0.81080   0.42209   1.000
    O84     O    0.39693   0.79077   0.37022   1.000
    O85     O    0.45843   0.86258   0.43155   1.000
    O86     O    0.39593   0.83306   0.43154   1.000
    O87     O    0.58971   0.79059   0.32858   1.000
    O88     O    0.46595   0.89656   0.17065   1.000
    O89     O    0.39591   0.80545   0.32544   1.000
    O90     O    0.48620   0.74735   0.33369   1.000
    O91     O    0.42369   0.77686   0.33370   1.000
    N92     N    0.72821   0.50510   0.30291   1.000
    O93     O    0.64698   0.52408   0.37030   1.000
    O94     O    0.67301   0.51308   0.34624   1.000
    O95     O    0.63656   0.47815   0.42218   1.000
    O96     O    0.77846   0.49404   0.17076   1.000
    O97     O    0.70841   0.42164   0.43165   1.000
    O98     O    0.64591   0.45115   0.43166   1.000
    O99     O    0.67368   0.55619   0.33377   1.000
    O100    O    0.69971   0.54519   0.30971   1.000
    O101    O    0.73618   0.58570   0.33378   1.000
    O102    O    0.83969   0.54503   0.32866   1.000
    O103    O    0.68367   0.53123   0.25936   1.000
    O104    O    0.67194   0.52071   0.30148   1.000
    O105    O    0.64591   0.53171   0.32554   1.000
    N106    N    0.22820   0.50510   0.30291   1.000
    O107    O    0.17192   0.52071   0.30148   1.000
    O108    O    0.14589   0.53171   0.32554   1.000
    O109    O    0.27844   0.49404   0.17076   1.000
    O110    O    0.17366   0.55619   0.33377   1.000
    O111    O    0.19970   0.54519   0.30971   1.000
    O112    O    0.23616   0.58570   0.33378   1.000
    O113    O    0.33969   0.54503   0.32866   1.000
    O114    O    0.14697   0.52408   0.37030   1.000
    O115    O    0.17300   0.51308   0.34624   1.000
    O116    O    0.13656   0.47815   0.42218   1.000
    O117    O    0.20840   0.42164   0.43165   1.000
    O118    O    0.14590   0.45115   0.43166   1.000
    O119    O    0.18366   0.53123   0.25936   1.000
    N120    N    0.02182   0.65660   0.69722   1.000
    O121    O    0.10412   0.69455   0.67455   1.000
    O122    O    0.07634   0.72313   0.66629   1.000
    O123    O    0.01384   0.75265   0.66630   1.000
    O124    O    0.91033   0.70941   0.67141   1.000
    O125    O    0.10310   0.70923   0.62977   1.000
    O126    O    0.11351   0.68919   0.57791   1.000
    O127    O    0.04161   0.63741   0.56845   1.000
    O128    O    0.10410   0.66693   0.56846   1.000
    O129    O    0.97161   0.57949   0.82933   1.000
    N130    N    0.77184   0.49490   0.69706   1.000
    O131    O    0.76388   0.41429   0.66620   1.000
    O132    O    0.82637   0.44381   0.66621   1.000
    O133    O    0.79164   0.57836   0.56834   1.000
    O134    O    0.85414   0.54884   0.56833   1.000
    O135    O    0.85415   0.46828   0.67444   1.000
    O136    O    0.86348   0.52185   0.57780   1.000
    O137    O    0.85307   0.47591   0.62968   1.000
    O138    O    0.66035   0.45496   0.67132   1.000
    O139    O    0.78412   0.48202   0.82921   1.000
    O140    O    0.81638   0.46876   0.81561   1.000
    N141    N    0.22820   0.00504   0.30290   1.000
    O142    O    0.17366   0.05616   0.33377   1.000
    O143    O    0.19969   0.04516   0.30971   1.000
    O144    O    0.23616   0.08568   0.33378   1.000
    O145    O    0.18365   0.03121   0.25936   1.000
    O146    O    0.20840   0.92161   0.43164   1.000
    O147    O    0.14590   0.95112   0.43165   1.000
    O148    O    0.27844   0.99401   0.17075   1.000
    O149    O    0.17192   0.02068   0.30148   1.000
    O150    O    0.14589   0.03168   0.32554   1.000
    O151    O    0.33969   0.04500   0.32866   1.000
    O152    O    0.14697   0.02406   0.37030   1.000
    O153    O    0.17300   0.01306   0.34624   1.000
    O154    O    0.13656   0.97812   0.42218   1.000
    N155    N    0.77184   0.99490   0.69709   1.000
    O156    O    0.86348   0.02185   0.57781   1.000
    O157    O    0.85307   0.97591   0.62969   1.000
    O158    O    0.78412   0.98202   0.82923   1.000
    O159    O    0.79164   0.07836   0.56835   1.000
    O160    O    0.85414   0.04884   0.56834   1.000
    O161    O    0.85415   0.96828   0.67446   1.000
    O162    O    0.81639   0.96876   0.81562   1.000
    O163    O    0.76388   0.91429   0.66621   1.000
    O164    O    0.82638   0.94381   0.66622   1.000
    O165    O    0.66035   0.95496   0.67133   1.000
    N166    N    0.52182   0.65660   0.69722   1.000
    O167    O    0.60413   0.69455   0.67455   1.000
    O168    O    0.54161   0.63741   0.56845   1.000
    O169    O    0.60411   0.66693   0.56846   1.000
    O170    O    0.57635   0.72313   0.66629   1.000
    O171    O    0.51384   0.75265   0.66630   1.000
    O172    O    0.47161   0.57949   0.82933   1.000
    O173    O    0.41033   0.70941   0.67141   1.000
    O174    O    0.60311   0.70923   0.62977   1.000
    O175    O    0.61352   0.68919   0.57791   1.000
    N176    N    0.27183   0.99490   0.69709   1.000
    O177    O    0.35306   0.97591   0.62969   1.000
    O178    O    0.36347   0.02185   0.57781   1.000
    O179    O    0.26386   0.91429   0.66621   1.000
    O180    O    0.32636   0.94381   0.66622   1.000
    O181    O    0.16035   0.95496   0.67133   1.000
    O182    O    0.35414   0.96828   0.67446   1.000
    O183    O    0.31637   0.96876   0.81562   1.000
    O184    O    0.29162   0.07836   0.56835   1.000
    O185    O    0.35413   0.04884   0.56834   1.000
    O186    O    0.28411   0.98202   0.82923   1.000
    N187    N    0.27183   0.49490   0.69706   1.000
    O188    O    0.29163   0.57836   0.56834   1.000
    O189    O    0.35413   0.54884   0.56833   1.000
    O190    O    0.36348   0.52185   0.57780   1.000
    O191    O    0.35306   0.47591   0.62968   1.000
    O192    O    0.26386   0.41429   0.66620   1.000
    O193    O    0.32636   0.44381   0.66621   1.000
    O194    O    0.28411   0.48202   0.82921   1.000
    O195    O    0.35413   0.46828   0.67444   1.000
    O196    O    0.31637   0.46876   0.81561   1.000
    O197    O    0.16035   0.45496   0.67132   1.000
    N198    N    0.02182   0.15660   0.69723   1.000
    O199    O    0.10412   0.19455   0.67455   1.000
    O200    O    0.10310   0.20923   0.62977   1.000
    O201    O    0.11351   0.18919   0.57791   1.000
    O202    O    0.04160   0.13741   0.56845   1.000
    O203    O    0.10410   0.16693   0.56846   1.000
    O204    O    0.91033   0.20941   0.67141   1.000
    O205    O    0.07634   0.22313   0.66629   1.000
    O206    O    0.01384   0.25265   0.66630   1.000
    O207    O    0.97161   0.07950   0.82933   1.000
loop_
    _geom_bond_atom_site_label_1
    _geom_bond_atom_site_label_2
    _geom_bond_distance
    _geom_bond_site_symmetry_2
    _ccdc_geom_bond_type
    N24    O25       2.08611      .   S
    Zr8    O25       3.31723      .   S
    N24    O26       1.56993      .   S
    Zr20   O26       2.21023      .   S
    N24    O27       1.23945      .   S
    Zr20   O27       2.43308      .   S
    N24    O28       2.15091      .   S
    Zr0    O28       3.04454  1_556   S
    N24    O29       2.29162      .   S
    Zr16   O29       3.33017      .   S
    N24    O30       2.21607      .   S
    Zr8    O30       3.21841      .   S
    N24    O31       2.00975      .   S
    Zr0    O31       3.13856  1_556   S
    N24    O32       1.92715      .   S
    Zr6    O32       3.14886      .   S
    N24    O33       1.46544      .   S
    Zr20   O33       2.29552      .   S
    N24    O34       1.76916      .   S
    Zr22   O34       2.90800      .   S
    N35    O36       1.23939      .   S
    Zr22   O36       2.43304      .   S
    N35    O37       1.92715      .   S
    Zr4    O37       3.14882  1_455   S
    N35    O38       1.46541      .   S
    Zr22   O38       2.29547      .   S
    N35    O39       2.00972      .   S
    Zr2    O39       3.13853  1_556   S
    N35    O40       2.08608      .   S
    Zr10   O40       3.31720      .   S
    N35    O41       1.56989      .   S
    Zr22   O41       2.21018      .   S
    N35    O42       2.29162      .   S
    Zr18   O42       3.33018      .   S
    N35    O43       2.21605      .   S
    Zr10   O43       3.21838      .   S
    N35    O44       2.15091      .   S
    Zr2    O44       3.04447  1_556   S
    N35    O45       1.76908  1_655   S
    Zr20   O45       2.90791      .   S
    N46    O47       2.29162      .   S
    Zr19   O47       3.33018      .   S
    N46    O48       2.21605      .   S
    Zr11   O48       3.21838      .   S
    N46    O49       2.15091      .   S
    Zr3    O49       3.04447  1_556   S
    N46    O50       1.23939      .   S
    Zr23   O50       2.43304      .   S
    N46    O51       1.92715      .   S
    Zr5    O51       3.14882  1_455   S
    N46    O52       1.46541      .   S
    Zr23   O52       2.29547      .   S
    N46    O53       2.08608      .   S
    Zr11   O53       3.31720      .   S
    N46    O54       1.56989      .   S
    Zr23   O54       2.21018      .   S
    N46    O55       2.00972      .   S
    Zr3    O55       3.13853  1_556   S
    N46    O56       1.76908  1_655   S
    Zr21   O56       2.90791      .   S
    N57    O58       1.23945      .   S
    Zr10   O58       2.43308      .   S
    N57    O59       1.76916      .   S
    Zr8    O59       2.90802      .   S
    N57    O60       1.46544      .   S
    Zr10   O60       2.29551      .   S
    N57    O61       1.92715      .   S
    Zr16   O61       3.14886      .   S
    N57    O62       2.29157      .   S
    Zr6    O62       3.33020      .   S
    N57    O63       2.21603      .   S
    Zr22   O63       3.21844      .   S
    N57    O64       2.30362      .   S
    Zr1    O64       3.33723  1_565   S
    N57    O65       1.56991      .   S
    Zr10   O65       2.21022      .   S
    N57    O66       2.08607      .   S
    Zr22   O66       3.31726      .   S
    N67    O68       2.29038  1_545   S
    Zr11   O68       3.32863      .   S
    N67    O69       2.21552  1_545   S
    Zr17   O69       3.21737      .   S
    N67    O70       1.46567      .   S
    Zr6    O70       2.29486      .   S
    N67    O71       0.94918      .   S
    Zr14   O71       0.95007      .   S
    N67    O72       1.92739      .   S
    Zr22   O72       3.14870      .   S
    N67    O73       1.56976      .   S
    Zr6    O73       2.20987      .   S
    N67    O74       0.99170      .   S
    Zr14   O74       1.10454      .   S
    N67    O75       2.08535  1_545   S
    Zr17   O75       3.31682      .   S
    N67    O76       1.76903      .   S
    Zr4    O76       2.90702  1_455   S
    N67    O77       0.76683      .   S
    Zr14   O77       0.81040      .   S
    N67    O78       1.23948      .   S
    Zr6    O78       2.43257      .   S
    N67    O79       0.98083      .   S
    Zr14   O79       1.07184      .   S
    N67    O80       2.30368  1_545   S
    Zr3    O80       3.33695  1_556   S
    N81    O82       2.00975      .   S
    Zr1    O82       3.13856  1_556   S
    N81    O83       2.08611      .   S
    Zr9    O83       3.31723      .   S
    N81    O84       1.56993      .   S
    Zr21   O84       2.21023      .   S
    N81    O85       2.29162      .   S
    Zr17   O85       3.33017      .   S
    N81    O86       2.21607      .   S
    Zr9    O86       3.21841      .   S
    N81    O87       1.76916      .   S
    Zr23   O87       2.90800      .   S
    N81    O88       2.15091      .   S
    Zr1    O88       3.04454  1_556   S
    N81    O89       1.23945      .   S
    Zr21   O89       2.43308      .   S
    N81    O90       1.92715      .   S
    Zr7    O90       3.14886      .   S
    N81    O91       1.46544      .   S
    Zr21   O91       2.29552      .   S
    N92    O93       1.56947      .   S
    Zr7    O93       2.20940      .   S
    N92    O94       0.99145      .   S
    Zr15   O94       1.10425      .   S
    N92    O95       2.08532      .   S
    Zr16   O95       3.31691      .   S
    N92    O96       2.30394      .   S
    Zr2    O96       3.33726  1_556   S
    N92    O97       2.29063      .   S
    Zr10   O97       3.32893      .   S
    N92    O98       2.21563      .   S
    Zr16   O98       3.21736      .   S
    N92    O99       1.46515      .   S
    Zr7    O99       2.29456      .   S
    N92    O100      0.94861      .   S
    Zr15   O100      0.95005      .   S
    N92    O101      1.92680      .   S
    Zr23   O101      3.14814      .   S
    N92    O102      1.76870      .   S
    Zr5    O102      2.90676  1_455   S
    N92    O103      0.98063      .   S
    Zr15   O103      1.07150      .   S
    N92    O104      0.76656      .   S
    Zr15   O104      0.80996      .   S
    N92    O105      1.23913      .   S
    Zr7    O105      2.43215      .   S
    N106   O107      0.76656      .   S
    Zr13   O107      0.80996      .   S
    N106   O108      1.23913      .   S
    Zr5    O108      2.43215      .   S
    N106   O109      2.30394      .   S
    Zr0    O109      3.33726  1_556   S
    N106   O110      1.46515      .   S
    Zr5    O110      2.29456      .   S
    N106   O111      0.94861      .   S
    Zr13   O111      0.95005      .   S
    N106   O112      1.92680      .   S
    Zr21   O112      3.14814      .   S
    N106   O113      1.76877      .   S
    Zr7    O113      2.90697      .   S
    N106   O114      1.56947      .   S
    Zr5    O114      2.20940      .   S
    N106   O115      0.99145      .   S
    Zr13   O115      1.10425      .   S
    N106   O116      2.08528      .   S
    Zr18   O116      3.31678  1_655   S
    N106   O117      2.29063      .   S
    Zr8    O117      3.32893      .   S
    N106   O118      2.21560      .   S
    Zr18   O118      3.21722  1_655   S
    N106   O119      0.98063      .   S
    Zr13   O119      1.07150      .   S
    N120   O121      1.23939      .   S
    Zr9    O121      2.43304      .   S
    N120   O122      1.46541      .   S
    Zr9    O122      2.29546      .   S
    N120   O123      1.92715      .   S
    Zr19   O123      3.14882  1_655   S
    N120   O124      1.76907  1_455   S
    Zr11   O124      2.90793      .   S
    N120   O125      1.56987      .   S
    Zr9    O125      2.21018      .   S
    N120   O126      2.08604      .   S
    Zr21   O126      3.31723      .   S
    N120   O127      2.29157      .   S
    Zr5    O127      3.33021      .   S
    N120   O128      2.21600      .   S
    Zr21   O128      3.21840      .   S
    N120   O129      2.30361  1_455   S
    Zr2    O129      3.33720      .   S
    N130   O131      1.92669      .   S
    Zr10   O131      3.14806      .   S
    N130   O132      1.46504      .   S
    Zr18   O132      2.29451      .   S
    N130   O133      2.29049      .   S
    Zr23   O133      3.32886      .   S
    N130   O134      2.21544      .   S
    Zr5    O134      3.21713  1_455   S
    N130   O135      1.23906      .   S
    Zr18   O135      2.43208      .   S
    N130   O136      2.08512      .   S
    Zr5    O136      3.31669  1_455   S
    N130   O137      1.56932      .   S
    Zr18   O137      2.20937      .   S
    N130   O138      1.76870      .   S
    Zr16   O138      2.90686      .   S
    N130   O139      2.15127      .   S
    Zr2    O139      3.04563      .   S
    N130   O140      2.01030      .   S
    Zr2    O140      3.13899      .   S
    N141   O142      1.46568      .   S
    Zr4    O142      2.29487      .   S
    N141   O143      0.94918      .   S
    Zr12   O143      0.95007      .   S
    N141   O144      1.92739      .   S
    Zr20   O144      3.14871      .   S
    N141   O145      0.98083      .   S
    Zr12   O145      1.07184      .   S
    N141   O146      2.29038  1_545   S
    Zr9    O146      3.32863      .   S
    N141   O147      2.21549  1_545   S
    Zr19   O147      3.21723  1_655   S
    N141   O148      2.30368  1_545   S
    Zr1    O148      3.33695  1_556   S
    N141   O149      0.76683      .   S
    Zr12   O149      0.81040      .   S
    N141   O150      1.23948      .   S
    Zr4    O150      2.43258      .   S
    N141   O151      1.76910      .   S
    Zr6    O151      2.90724      .   S
    N141   O152      1.56976      .   S
    Zr4    O152      2.20987      .   S
    N141   O153      0.99170      .   S
    Zr12   O153      1.10454      .   S
    N141   O154      2.08531  1_545   S
    Zr19   O154      3.31670  1_655   S
    N155   O156      2.08525  1_565   S
    Zr4    O156      3.31681  1_455   S
    N155   O157      1.56944      .   S
    Zr19   O157      2.20946      .   S
    N155   O158      2.15109      .   S
    Zr3    O158      3.04547      .   S
    N155   O159      2.29062  1_565   S
    Zr22   O159      3.32897      .   S
    N155   O160      2.21557  1_565   S
    Zr4    O160      3.21725  1_455   S
    N155   O161      1.23914      .   S
    Zr19   O161      2.43220      .   S
    N155   O162      2.01014      .   S
    Zr3    O162      3.13882      .   S
    N155   O163      1.92680      .   S
    Zr11   O163      3.14818      .   S
    N155   O164      1.46515      .   S
    Zr19   O164      2.29461      .   S
    N155   O165      1.76877      .   S
    Zr17   O165      2.90696      .   S
    N166   O167      1.23945      .   S
    Zr11   O167      2.43308      .   S
    N166   O168      2.29157      .   S
    Zr7    O168      3.33020      .   S
    N166   O169      2.21603      .   S
    Zr23   O169      3.21844      .   S
    N166   O170      1.46544      .   S
    Zr11   O170      2.29551      .   S
    N166   O171      1.92715      .   S
    Zr17   O171      3.14886      .   S
    N166   O172      2.30362      .   S
    Zr0    O172      3.33723      .   S
    N166   O173      1.76916      .   S
    Zr9    O173      2.90801      .   S
    N166   O174      1.56991      .   S
    Zr11   O174      2.21022      .   S
    N166   O175      2.08607      .   S
    Zr23   O175      3.31726      .   S
    N176   O177      1.56944      .   S
    Zr17   O177      2.20947      .   S
    N176   O178      2.08529  1_565   S
    Zr6    O178      3.31694      .   S
    N176   O179      1.92680      .   S
    Zr9    O179      3.14818      .   S
    N176   O180      1.46515      .   S
    Zr17   O180      2.29461      .   S
    N176   O181      1.76871      .   S
    Zr19   O181      2.90675  1_655   S
    N176   O182      1.23914      .   S
    Zr17   O182      2.43220      .   S
    N176   O183      2.01014      .   S
    Zr1    O183      3.13882      .   S
    N176   O184      2.29062  1_565   S
    Zr20   O184      3.32897      .   S
    N176   O185      2.21560  1_565   S
    Zr6    O185      3.21739      .   S
    N176   O186      2.15109      .   S
    Zr1    O186      3.04548      .   S
    N187   O188      2.29049      .   S
    Zr21   O188      3.32886      .   S
    N187   O189      2.21547      .   S
    Zr7    O189      3.21727      .   S
    N187   O190      2.08516      .   S
    Zr7    O190      3.31682      .   S
    N187   O191      1.56932      .   S
    Zr16   O191      2.20937      .   S
    N187   O192      1.92669      .   S
    Zr8    O192      3.14806      .   S
    N187   O193      1.46504      .   S
    Zr16   O193      2.29451      .   S
    N187   O194      2.15127      .   S
    Zr0    O194      3.04563      .   S
    N187   O195      1.23906      .   S
    Zr16   O195      2.43208      .   S
    N187   O196      2.01030      .   S
    Zr0    O196      3.13899      .   S
    N187   O197      1.76863      .   S
    Zr18   O197      2.90665  1_655   S
    N198   O199      1.23939      .   S
    Zr8    O199      2.43304      .   S
    N198   O200      1.56988      .   S
    Zr8    O200      2.21017      .   S
    N198   O201      2.08607      .   S
    Zr20   O201      3.31726      .   S
    N198   O202      2.29161      .   S
    Zr4    O202      3.33025      .   S
    N198   O203      2.21604      .   S
    Zr20   O203      3.21843      .   S
    N198   O204      1.76908  1_455   S
    Zr10   O204      2.90794      .   S
    N198   O205      1.46541      .   S
    Zr8    O205      2.29547      .   S
    N198   O206      1.92715      .   S
    Zr18   O206      3.14882  1_655   S
    N198   O207      2.30358  1_455   S
    Zr3    O207      3.33718  1_565   S
