# CIF file generated by openbabel 2.4.90, see http://openbabel.sf.net
data_I
_chemical_name_common ''
_cell_length_a 14.647
_cell_length_b 20.817
_cell_length_c 16.596
_cell_angle_alpha 89.997
_cell_angle_beta 90.006
_cell_angle_gamma 90.004
_space_group_name_H-M_alt 'P 1'
_space_group_name_Hall 'P 1'
loop_
    _symmetry_equiv_pos_as_xyz
    x,y,z
loop_
    _atom_site_label
    _atom_site_type_symbol
    _atom_site_fract_x
    _atom_site_fract_y
    _atom_site_fract_z
    _atom_site_occupancy
    P0      P    0.98922   0.05026   0.16210   1.000
    P1      P    0.98922   0.55025   0.16211   1.000
    P2      P    0.48921   0.05027   0.16210   1.000
    P3      P    0.48921   0.55025   0.16211   1.000
    P4      P    0.23923   0.30025   0.33790   1.000
    P5      P    0.23922   0.80024   0.33790   1.000
    P6      P    0.73922   0.30025   0.33790   1.000
    P7      P    0.73921   0.80024   0.33790   1.000
    P8      P    0.23923   0.44973   0.83791   1.000
    P9      P    0.23922   0.94971   0.83791   1.000
    P10     P    0.73922   0.44972   0.83791   1.000
    P11     P    0.73920   0.94971   0.83791   1.000
    P12     P    0.98921   0.19974   0.66212   1.000
    P13     P    0.98921   0.69972   0.66212   1.000
    P14     P    0.48920   0.19973   0.66212   1.000
    P15     P    0.48920   0.69972   0.66212   1.000
    H16     H    0.06254   0.02952   0.29108   1.000
    H17     H    0.06254   0.52951   0.29109   1.000
    H18     H    0.56253   0.02952   0.29100   1.000
    H19     H    0.56253   0.52951   0.29109   1.000
    H20     H    0.09944   0.47397   0.21520   1.000
    H21     H    0.09945   0.97396   0.21519   1.000
    H22     H    0.59943   0.47397   0.21520   1.000
    H23     H    0.59944   0.97396   0.21519   1.000
    H24     H    0.44182   0.16133   0.14287   1.000
    H25     H    0.44181   0.66132   0.14287   1.000
    H26     H    0.94181   0.16133   0.14287   1.000
    H27     H    0.94180   0.66132   0.14287   1.000
    H28     H    0.46560   0.14346   0.24600   1.000
    H29     H    0.46559   0.64345   0.24603   1.000
    H30     H    0.96559   0.14346   0.24602   1.000
    H31     H    0.96558   0.64345   0.24603   1.000
    H32     H    0.06064   0.49907   0.04629   1.000
    H33     H    0.06064   0.99906   0.04628   1.000
    H34     H    0.56063   0.49906   0.04629   1.000
    H35     H    0.56063   0.99906   0.04628   1.000
    H36     H    0.00095   0.07034   0.01764   1.000
    H37     H    0.00094   0.57033   0.01765   1.000
    H38     H    0.50093   0.07034   0.01764   1.000
    H39     H    0.50093   0.57033   0.01760   1.000
    H40     H    0.26195   0.08276   0.12111   1.000
    H41     H    0.26195   0.58275   0.12112   1.000
    H42     H    0.76195   0.08276   0.12111   1.000
    H43     H    0.76194   0.58275   0.12112   1.000
    H44     H    0.20603   0.00725   0.11376   1.000
    H45     H    0.20602   0.50723   0.11377   1.000
    H46     H    0.70602   0.00725   0.11376   1.000
    H47     H    0.70601   0.50723   0.11377   1.000
    H48     H    0.06546   0.17456   0.04766   1.000
    H49     H    0.06546   0.67455   0.04767   1.000
    H50     H    0.56545   0.17456   0.04766   1.000
    H51     H    0.56545   0.67455   0.04767   1.000
    H52     H    0.18002   0.18032   0.08289   1.000
    H53     H    0.18002   0.68031   0.08290   1.000
    H54     H    0.68002   0.18033   0.08289   1.000
    H55     H    0.68001   0.68031   0.08290   1.000
    H56     H    0.12399   0.13897   0.29185   1.000
    H57     H    0.12399   0.63896   0.29186   1.000
    H58     H    0.62398   0.13897   0.29186   1.000
    H59     H    0.62398   0.63896   0.29186   1.000
    H60     H    0.21339   0.15920   0.22446   1.000
    H61     H    0.21339   0.65919   0.22446   1.000
    H62     H    0.71339   0.15920   0.22446   1.000
    H63     H    0.71338   0.65919   0.22446   1.000
    H64     H    0.31252   0.27952   0.20892   1.000
    H65     H    0.31251   0.77951   0.20892   1.000
    H66     H    0.81251   0.27952   0.20892   1.000
    H67     H    0.81250   0.77951   0.20892   1.000
    H68     H    0.59943   0.77601   0.71521   1.000
    H69     H    0.44179   0.08867   0.64289   1.000
    H70     H    0.44180   0.58866   0.64288   1.000
    H71     H    0.94178   0.08867   0.64289   1.000
    H72     H    0.34944   0.22397   0.28481   1.000
    H73     H    0.34944   0.72396   0.28480   1.000
    H74     H    0.84943   0.22397   0.28481   1.000
    H75     H    0.84943   0.72396   0.28482   1.000
    H76     H    0.19185   0.41132   0.35714   1.000
    H77     H    0.19183   0.91131   0.35713   1.000
    H78     H    0.69184   0.41132   0.35714   1.000
    H79     H    0.69182   0.91131   0.35713   1.000
    H80     H    0.21560   0.39346   0.25399   1.000
    H81     H    0.21559   0.89344   0.25398   1.000
    H82     H    0.71559   0.39346   0.25390   1.000
    H83     H    0.71558   0.89344   0.25398   1.000
    H84     H    0.31068   0.24905   0.45372   1.000
    H85     H    0.31067   0.74905   0.45372   1.000
    H86     H    0.81067   0.24905   0.45372   1.000
    H87     H    0.81066   0.74905   0.45372   1.000
    H88     H    0.25100   0.32031   0.48236   1.000
    H89     H    0.25098   0.82031   0.48236   1.000
    H90     H    0.75099   0.32031   0.48236   1.000
    H91     H    0.75097   0.82031   0.48236   1.000
    H92     H    0.01199   0.33273   0.37889   1.000
    H93     H    0.01197   0.83273   0.37889   1.000
    H94     H    0.51198   0.33273   0.37889   1.000
    H95     H    0.51196   0.83273   0.37889   1.000
    H96     H    0.45605   0.25722   0.38623   1.000
    H97     H    0.45604   0.75722   0.38620   1.000
    H98     H    0.95604   0.25722   0.38623   1.000
    H99     H    0.95603   0.75722   0.38624   1.000
    C100    C    0.11553   0.15391   0.08961   1.000
    C101    C    0.11552   0.65390   0.08961   1.000
    C102    C    0.61552   0.15391   0.08960   1.000
    C103    C    0.61551   0.65390   0.08961   1.000
    C104    C    0.14837   0.13342   0.22979   1.000
    H105    H    0.31552   0.42454   0.45234   1.000
    H106    H    0.31550   0.92453   0.45233   1.000
    H107    H    0.81551   0.42454   0.45234   1.000
    H108    H    0.81549   0.92453   0.45233   1.000
    H109    H    0.43007   0.43030   0.41711   1.000
    H110    H    0.43005   0.93030   0.41710   1.000
    H111    H    0.93006   0.43030   0.41711   1.000
    H112    H    0.93003   0.93030   0.41710   1.000
    H113    H    0.37398   0.38896   0.20815   1.000
    H114    H    0.37396   0.88895   0.20814   1.000
    H115    H    0.87397   0.38896   0.20815   1.000
    H116    H    0.87395   0.88895   0.20814   1.000
    H117    H    0.46340   0.40919   0.27555   1.000
    H118    H    0.46338   0.90918   0.27554   1.000
    H119    H    0.96339   0.40919   0.27555   1.000
    H120    H    0.96337   0.90918   0.27554   1.000
    H121    H    0.31251   0.47046   0.70892   1.000
    H122    H    0.31250   0.97045   0.70893   1.000
    H123    H    0.81250   0.47046   0.70892   1.000
    H124    H    0.81249   0.97045   0.70893   1.000
    H125    H    0.34944   0.02602   0.78482   1.000
    H126    H    0.34944   0.52602   0.78481   1.000
    H127    H    0.84943   0.02602   0.78482   1.000
    H128    H    0.84944   0.52601   0.78482   1.000
    H129    H    0.19183   0.33866   0.85716   1.000
    H130    H    0.19181   0.83864   0.85715   1.000
    H131    H    0.69182   0.33865   0.85716   1.000
    H132    H    0.69180   0.83864   0.85715   1.000
    H133    H    0.21558   0.35653   0.75400   1.000
    H134    H    0.21556   0.85652   0.75399   1.000
    H135    H    0.71557   0.35653   0.75400   1.000
    H136    H    0.71556   0.85652   0.75399   1.000
    H137    H    0.31068   0.00092   0.95373   1.000
    H138    H    0.31069   0.50092   0.95370   1.000
    H139    H    0.81067   0.00092   0.95373   1.000
    H140    H    0.81068   0.50092   0.95373   1.000
    H141    H    0.25100   0.42966   0.98230   1.000
    H142    H    0.25098   0.92964   0.98237   1.000
    H143    H    0.75098   0.42966   0.98238   1.000
    H144    H    0.75097   0.92964   0.98237   1.000
    H145    H    0.01198   0.41725   0.87889   1.000
    H146    H    0.01196   0.91723   0.87889   1.000
    H147    H    0.51197   0.41725   0.87889   1.000
    H148    H    0.51195   0.91722   0.87800   1.000
    H149    H    0.45605   0.49276   0.88623   1.000
    H150    H    0.45604   0.99274   0.88624   1.000
    H151    H    0.95604   0.49276   0.88624   1.000
    H152    H    0.95603   0.99274   0.88624   1.000
    H153    H    0.31550   0.32544   0.95236   1.000
    H154    H    0.31547   0.82542   0.95235   1.000
    H155    H    0.81548   0.32544   0.95236   1.000
    H156    H    0.81546   0.82542   0.95235   1.000
    H157    H    0.43005   0.31968   0.91712   1.000
    H158    H    0.43002   0.81965   0.91710   1.000
    H159    H    0.93004   0.31968   0.91712   1.000
    H160    H    0.93001   0.81966   0.91711   1.000
    H161    H    0.37395   0.36102   0.70816   1.000
    H162    H    0.37394   0.86101   0.70815   1.000
    H163    H    0.87394   0.36102   0.70816   1.000
    H164    H    0.87393   0.86101   0.70815   1.000
    H165    H    0.46337   0.34080   0.77555   1.000
    H166    H    0.46336   0.84078   0.77555   1.000
    H167    H    0.96336   0.34080   0.77555   1.000
    H168    H    0.96335   0.84078   0.77555   1.000
    H169    H    0.06253   0.22046   0.79111   1.000
    H170    H    0.06253   0.72045   0.79110   1.000
    H171    H    0.56252   0.22046   0.79111   1.000
    H172    H    0.56252   0.72045   0.79110   1.000
    H173    H    0.09944   0.27602   0.71522   1.000
    H174    H    0.09945   0.77601   0.71521   1.000
    H175    H    0.59944   0.27602   0.71522   1.000
    O176    O    0.39875   0.73359   0.67030   1.000
    O177    O    0.89873   0.23360   0.67033   1.000
    O178    O    0.89874   0.73359   0.67030   1.000
    H179    H    0.94179   0.58865   0.64288   1.000
    H180    H    0.46557   0.10653   0.74604   1.000
    H181    H    0.46558   0.60652   0.74600   1.000
    H182    H    0.96557   0.10653   0.74604   1.000
    H183    H    0.96557   0.60652   0.74604   1.000
    H184    H    0.06064   0.25094   0.54631   1.000
    H185    H    0.06064   0.75093   0.54630   1.000
    H186    H    0.56063   0.25094   0.54631   1.000
    H187    H    0.56063   0.75093   0.54630   1.000
    H188    H    0.00094   0.17968   0.51766   1.000
    H189    H    0.00094   0.67966   0.51766   1.000
    H190    H    0.50092   0.17967   0.51766   1.000
    H191    H    0.50093   0.67967   0.51766   1.000
    H192    H    0.26194   0.16726   0.62114   1.000
    H193    H    0.26194   0.66725   0.62113   1.000
    H194    H    0.76193   0.16725   0.62114   1.000
    H195    H    0.76193   0.66725   0.62113   1.000
    H196    H    0.20602   0.24276   0.61380   1.000
    H197    H    0.20602   0.74275   0.61379   1.000
    H198    H    0.70601   0.24276   0.61379   1.000
    H199    H    0.70601   0.74276   0.61379   1.000
    H200    H    0.06545   0.07546   0.54768   1.000
    H201    H    0.06544   0.57544   0.54768   1.000
    H202    H    0.56543   0.07545   0.54768   1.000
    H203    H    0.56544   0.57545   0.54767   1.000
    H204    H    0.18000   0.06969   0.58291   1.000
    H205    H    0.18000   0.56968   0.58291   1.000
    H206    H    0.67999   0.06969   0.58291   1.000
    H207    H    0.68000   0.56968   0.58290   1.000
    H208    H    0.12397   0.11102   0.79187   1.000
    H209    H    0.12397   0.61101   0.79187   1.000
    H210    H    0.62396   0.11102   0.79188   1.000
    H211    H    0.62397   0.61101   0.79187   1.000
    H212    H    0.21337   0.09080   0.72448   1.000
    H213    H    0.21337   0.59079   0.72447   1.000
    H214    H    0.71336   0.09080   0.72448   1.000
    H215    H    0.71337   0.59079   0.72447   1.000
    C216    C    0.08377   0.02482   0.22769   1.000
    C217    C    0.08376   0.52481   0.22769   1.000
    C218    C    0.58376   0.02482   0.22769   1.000
    C219    C    0.58375   0.52481   0.22770   1.000
    C220    C    0.48954   0.13652   0.18363   1.000
    C221    C    0.48954   0.63650   0.18364   1.000
    C222    C    0.98954   0.13652   0.18363   1.000
    C223    C    0.98953   0.63650   0.18364   1.000
    C224    C    0.04595   0.04910   0.06399   1.000
    C225    C    0.04595   0.54909   0.06000   1.000
    C226    C    0.54594   0.04910   0.06390   1.000
    C227    C    0.54594   0.54909   0.06399   1.000
    C228    C    0.19587   0.05843   0.12726   1.000
    C229    C    0.19587   0.55842   0.12727   1.000
    C230    C    0.69587   0.05843   0.12720   1.000
    C231    C    0.69586   0.55842   0.12726   1.000
    C232    C    0.14837   0.63341   0.22980   1.000
    C233    C    0.64837   0.13342   0.22979   1.000
    C234    C    0.64836   0.63341   0.22980   1.000
    C235    C    0.33376   0.27481   0.27231   1.000
    C236    C    0.33375   0.77480   0.27231   1.000
    C237    C    0.83375   0.27481   0.27231   1.000
    C238    C    0.83374   0.77480   0.27230   1.000
    C239    C    0.23957   0.38651   0.31630   1.000
    C240    C    0.23955   0.88650   0.31637   1.000
    C241    C    0.73956   0.38651   0.31630   1.000
    C242    C    0.73955   0.88650   0.31637   1.000
    C243    C    0.29599   0.29908   0.43602   1.000
    C244    C    0.29597   0.79907   0.43600   1.000
    C245    C    0.79598   0.29908   0.43602   1.000
    C246    C    0.79596   0.79908   0.43601   1.000
    C247    C    0.44589   0.30841   0.37274   1.000
    C248    C    0.44588   0.80841   0.37274   1.000
    C249    C    0.94589   0.30841   0.37274   1.000
    C250    C    0.94587   0.80841   0.37274   1.000
    C251    C    0.36557   0.40388   0.41040   1.000
    C252    C    0.36555   0.90388   0.41000   1.000
    C253    C    0.86556   0.40388   0.41040   1.000
    C254    C    0.86554   0.90388   0.41039   1.000
    C255    C    0.39837   0.38341   0.27022   1.000
    C256    C    0.39836   0.88341   0.27021   1.000
    C257    C    0.89836   0.38341   0.27022   1.000
    C258    C    0.89835   0.88340   0.27021   1.000
    C259    C    0.33375   0.47517   0.77232   1.000
    C260    C    0.33375   0.97516   0.77232   1.000
    C261    C    0.83374   0.47517   0.77232   1.000
    C262    C    0.83373   0.97516   0.77232   1.000
    C263    C    0.23955   0.36347   0.81639   1.000
    C264    C    0.23953   0.86346   0.81638   1.000
    C265    C    0.73954   0.36347   0.81639   1.000
    C266    C    0.73952   0.86346   0.81638   1.000
    C267    C    0.29599   0.45090   0.93602   1.000
    C268    C    0.29597   0.95088   0.93603   1.000
    C269    C    0.79597   0.45090   0.93603   1.000
    C270    C    0.79596   0.95088   0.93602   1.000
    C271    C    0.44589   0.44157   0.87274   1.000
    C272    C    0.44588   0.94155   0.87275   1.000
    C273    C    0.94588   0.44157   0.87275   1.000
    C274    C    0.94587   0.94155   0.87275   1.000
    C275    C    0.36555   0.34609   0.91041   1.000
    C276    C    0.36553   0.84607   0.91041   1.000
    C277    C    0.86554   0.34609   0.91041   1.000
    C278    C    0.86552   0.84607   0.91041   1.000
    C279    C    0.39835   0.36657   0.77022   1.000
    C280    C    0.39834   0.86655   0.77022   1.000
    C281    C    0.89834   0.36657   0.77022   1.000
    C282    C    0.89833   0.86656   0.77022   1.000
    C283    C    0.08375   0.22518   0.72771   1.000
    C284    C    0.08376   0.72516   0.72771   1.000
    C285    C    0.58374   0.22518   0.72772   1.000
    C286    C    0.58375   0.72517   0.72771   1.000
    C287    C    0.48952   0.11348   0.68365   1.000
    C288    C    0.48953   0.61347   0.68364   1.000
    C289    C    0.98952   0.11348   0.68365   1.000
    C290    C    0.98952   0.61347   0.68365   1.000
    C291    C    0.04594   0.20091   0.56401   1.000
    C292    C    0.04594   0.70090   0.56401   1.000
    C293    C    0.54593   0.20091   0.56401   1.000
    C294    C    0.54593   0.70090   0.56401   1.000
    C295    C    0.19586   0.19158   0.62729   1.000
    C296    C    0.19586   0.69157   0.62728   1.000
    C297    C    0.69586   0.19158   0.62728   1.000
    C298    C    0.69586   0.69157   0.62728   1.000
    C299    C    0.11551   0.09611   0.58963   1.000
    C300    C    0.11551   0.59609   0.58962   1.000
    C301    C    0.61550   0.09610   0.58962   1.000
    C302    C    0.61550   0.59610   0.58962   1.000
    C303    C    0.14835   0.11658   0.72980   1.000
    C304    C    0.14836   0.61656   0.72980   1.000
    C305    C    0.64834   0.11657   0.72981   1.000
    C306    C    0.64835   0.61656   0.72980   1.000
    N307    N    0.16645   0.06469   0.21270   1.000
    N308    N    0.16644   0.56468   0.21270   1.000
    N309    N    0.66643   0.06469   0.21269   1.000
    N310    N    0.66642   0.56468   0.21270   1.000
    N311    N    0.13161   0.08636   0.06953   1.000
    N312    N    0.13160   0.58635   0.06954   1.000
    N313    N    0.63159   0.08636   0.06954   1.000
    N314    N    0.63159   0.58635   0.06955   1.000
    N315    N    0.08256   0.16398   0.17362   1.000
    N316    N    0.08256   0.66397   0.17363   1.000
    N317    N    0.58255   0.16398   0.17362   1.000
    N318    N    0.58255   0.66396   0.17362   1.000
    N319    N    0.41644   0.31468   0.28730   1.000
    N320    N    0.41643   0.81467   0.28730   1.000
    N321    N    0.91643   0.31468   0.28730   1.000
    N322    N    0.91642   0.81467   0.28730   1.000
    N323    N    0.38164   0.33634   0.43047   1.000
    N324    N    0.38163   0.83634   0.43046   1.000
    N325    N    0.88163   0.33634   0.43040   1.000
    N326    N    0.88162   0.83634   0.43046   1.000
    N327    N    0.33258   0.41397   0.32639   1.000
    N328    N    0.33256   0.91396   0.32638   1.000
    N329    N    0.83257   0.41397   0.32639   1.000
    N330    N    0.83255   0.91396   0.32638   1.000
    N331    N    0.41643   0.43531   0.78731   1.000
    N332    N    0.41641   0.93529   0.78730   1.000
    N333    N    0.91642   0.43531   0.78731   1.000
    N334    N    0.91641   0.93529   0.78731   1.000
    N335    N    0.38164   0.41364   0.93047   1.000
    N336    N    0.38161   0.91362   0.93047   1.000
    N337    N    0.88162   0.41364   0.93047   1.000
    N338    N    0.88161   0.91362   0.93047   1.000
    N339    N    0.33256   0.33602   0.82640   1.000
    N340    N    0.33254   0.83600   0.82639   1.000
    N341    N    0.83254   0.33602   0.82640   1.000
    N342    N    0.83253   0.83600   0.82639   1.000
    N343    N    0.16643   0.18532   0.71273   1.000
    N344    N    0.16643   0.68530   0.71272   1.000
    N345    N    0.66641   0.18531   0.71272   1.000
    N346    N    0.66642   0.68530   0.71272   1.000
    N347    N    0.13159   0.16366   0.56950   1.000
    N348    N    0.13159   0.66364   0.56956   1.000
    N349    N    0.63157   0.16365   0.56950   1.000
    N350    N    0.63158   0.66364   0.56955   1.000
    N351    N    0.08253   0.08602   0.67364   1.000
    N352    N    0.08254   0.58601   0.67363   1.000
    N353    N    0.58252   0.08603   0.67364   1.000
    N354    N    0.58253   0.58601   0.67363   1.000
    O355    O    0.39875   0.51638   0.17031   1.000
    O356    O    0.39875   0.00000   0.17031   1.000
    O357    O    0.89874   0.51638   0.17031   1.000
    O358    O    0.89874   0.00000   0.17031   1.000
    O359    O    0.14877   0.26638   0.32969   1.000
    O360    O    0.14876   0.76637   0.32969   1.000
    O361    O    0.64876   0.26638   0.32969   1.000
    O362    O    0.64875   0.76637   0.32969   1.000
    O363    O    0.14876   0.98361   0.82970   1.000
    O364    O    0.14877   0.48359   0.82970   1.000
    O365    O    0.64875   0.98361   0.82970   1.000
    O366    O    0.64876   0.48359   0.82970   1.000
    O367    O    0.39875   0.23360   0.67033   1.000
loop_
    _geom_bond_atom_site_label_1
    _geom_bond_atom_site_label_2
    _geom_bond_distance
    _geom_bond_site_symmetry_2
    _ccdc_geom_bond_type
    H39    C227      1.10571      .   S
    H38    C226      1.10422      .   S
    H36    C224      1.10524      .   S
    H37    C225      1.06012      .   S
    H33    C224      1.10369  1_565   S
    H35    C226      1.10331  1_565   S
    H32    C225      1.08745      .   S
    H34    C227      1.10322      .   S
    H50    C102      1.09863      .   S
    H48    C100      1.09868      .   S
    H49    C101      1.09857      .   S
    H51    C103      1.09860      .   S
    C225   N312      1.48341      .   S
    C225   P1        1.88762  1_455   S
    C226   N313      1.47790      .   S
    C226   P2        1.82953      .   S
    C224   N311      1.47782      .   S
    C224   P0        1.82825  1_455   S
    C227   N314      1.47781      .   S
    C227   P3        1.82837      .   S
    N311   C100      1.46410      .   S
    N311   C228      1.46352      .   S
    N313   C102      1.46410      .   S
    N313   C230      1.46291      .   S
    N312   C101      1.46409      .   S
    N312   C229      1.46354      .   S
    N314   C103      1.46409      .   S
    N314   C231      1.46341      .   S
    H54    C102      1.09869      .   S
    H52    C100      1.09870      .   S
    H53    C101      1.09870      .   S
    H55    C103      1.09869      .   S
    C102   N317      1.49050      .   S
    C100   N315      1.49036      .   S
    C103   N318      1.49035      .   S
    C101   N316      1.49050      .   S
    H44    C228      1.09892      .   S
    H46    C230      1.09874      .   S
    H45    C229      1.09892      .   S
    H47    C231      1.09889      .   S
    H40    C228      1.09709      .   S
    H42    C230      1.09698      .   S
    H43    C231      1.09707      .   S
    H41    C229      1.09709      .   S
    C230   N309      1.48865      .   S
    C228   N307      1.48778      .   S
    C231   N310      1.48785      .   S
    C229   N308      1.48765      .   S
    H24    C220      1.10140      .   S
    H25    C221      1.10151      .   S
    H26    C222      1.10142      .   S
    H27    C223      1.10153      .   S
    P0     O358      1.69398      .   S
    P0     C222      1.83072      .   S
    P0     C216      1.83930  1_655   S
    P2     O356      1.69375      .   S
    P2     C220      1.83074      .   S
    P2     C218      1.83925      .   S
    P3     O355      1.50703      .   S
    P3     C221      1.83072      .   S
    P3     C219      1.83926      .   S
    P1     O357      1.50731      .   S
    P1     C223      1.83074      .   S
    P1     C217      1.83918  1_655   S
    N315   C222      1.48691  1_455   S
    N315   C104      1.48418      .   S
    N317   C220      1.48661      .   S
    N317   C233      1.48410      .   S
    N318   C221      1.48664      .   S
    N318   C234      1.48420      .   S
    N316   C223      1.48689  1_455   S
    N316   C232      1.48413      .   S
    C222   H30       1.10279      .   S
    C220   H28       1.10246      .   S
    C221   H29       1.10279      .   S
    C223   H31       1.10280      .   S
    H114   C256      1.09640      .   S
    H116   C258      1.09639      .   S
    H113   C255      1.09640      .   S
    H115   C257      1.09640      .   S
    H66    C237      1.10140      .   S
    H67    C238      1.10123      .   S
    H65    C236      1.10140      .   S
    H64    C235      1.10140      .   S
    N309   C218      1.48899      .   S
    N309   C233      1.48252      .   S
    N307   C216      1.48899      .   S
    N307   C104      1.48254      .   S
    N310   C219      1.48899      .   S
    N310   C234      1.48253      .   S
    N308   C217      1.48899      .   S
    N308   C232      1.48254      .   S
    H23    C218      1.10312  1_565   S
    H21    C216      1.10313  1_565   S
    H22    C219      1.10268      .   S
    H20    C217      1.10264      .   S
    H63    C234      1.09666      .   S
    H62    C233      1.09664      .   S
    H61    C232      1.09666      .   S
    H60    C104      1.09664      .   S
    C216   H16       1.10140      .   S
    C218   H18       1.10013      .   S
    C217   H17       1.10155      .   S
    C219   H19       1.10140      .   S
    C104   H56       1.09624      .   S
    C233   H58       1.09641      .   S
    C232   H57       1.09624      .   S
    C234   H59       1.09625      .   S
    H82    C241      1.10295      .   S
    H83    C242      1.10279      .   S
    H81    C240      1.10279      .   S
    H80    C239      1.10156      .   S
    C256   H118      1.09663      .   S
    C256   N320      1.48251      .   S
    C256   N328      1.48412      .   S
    C258   H120      1.09666      .   S
    C258   N322      1.48250      .   S
    C258   N330      1.48415      .   S
    C257   H119      1.09664      .   S
    C257   N321      1.48249      .   S
    C257   N329      1.48411      .   S
    C255   H117      1.09664      .   S
    C255   N319      1.48250      .   S
    C255   N327      1.48412      .   S
    C238   H75       1.10273      .   S
    C238   N322      1.48902      .   S
    C238   P7        1.83940      .   S
    C236   H73       1.10264      .   S
    C236   N320      1.48896      .   S
    C236   P5        1.83929      .   S
    C235   H72       1.10267      .   S
    C235   N319      1.48899      .   S
    C235   P4        1.83927      .   S
    C237   H74       1.10267      .   S
    C237   N321      1.48898      .   S
    C237   P6        1.83927      .   S
    N319   C247      1.48781      .   S
    N320   C248      1.48783      .   S
    N321   C249      1.48782      .   S
    N322   C250      1.48779      .   S
    C241   N329      1.48678      .   S
    C241   P6        1.83097      .   S
    C241   H78       1.10220      .   S
    C239   N327      1.48677      .   S
    C239   P4        1.83097      .   S
    C239   H76       1.10221      .   S
    C242   N330      1.48663      .   S
    C242   P7        1.83072      .   S
    C242   H79       1.10144      .   S
    C240   N328      1.48662      .   S
    C240   P5        1.83072      .   S
    C240   H77       1.10142      .   S
    N330   C254      1.49036      .   S
    N328   C252      1.48430      .   S
    N327   C251      1.49039      .   S
    N329   C253      1.49038      .   S
    O362   P7        1.50705      .   S
    O361   P6        1.50706      .   S
    O360   P5        1.50706      .   S
    O359   P4        1.50707      .   S
    P7     C246      1.82824      .   S
    P5     C244      1.82808      .   S
    P6     C245      1.82839      .   S
    P4     C243      1.82839      .   S
    C247   H94       1.09707      .   S
    C247   H96       1.09891      .   S
    C247   N323      1.46353      .   S
    C248   H95       1.09708      .   S
    C248   H97       1.09879      .   S
    C248   N324      1.46349      .   S
    C249   H92       1.09734  1_655   S
    C249   H98       1.09891      .   S
    C249   N325      1.46280      .   S
    C250   H93       1.09735  1_655   S
    C250   H99       1.09891      .   S
    C250   N326      1.46345      .   S
    C252   H110      1.09937      .   S
    C252   N324      1.46560      .   S
    C252   H106      1.10273      .   S
    C254   H112      1.09869      .   S
    C254   N326      1.46408      .   S
    C254   H108      1.09860      .   S
    C251   H109      1.09869      .   S
    C251   N323      1.46410      .   S
    C251   H105      1.09859      .   S
    C253   H111      1.09869      .   S
    C253   N325      1.46384      .   S
    C253   H107      1.09858      .   S
    N325   C245      1.47789      .   S
    N326   C246      1.47782      .   S
    N324   C244      1.47780      .   S
    N323   C243      1.47782      .   S
    C244   H85       1.10330      .   S
    C244   H89       1.10537      .   S
    C246   H87       1.10325      .   S
    C246   H91       1.10524      .   S
    C243   H84       1.10322      .   S
    C243   H88       1.10510      .   S
    C245   H86       1.10322      .   S
    C245   H90       1.10511      .   S
    H189   C292      1.10521      .   S
    H188   C291      1.10521      .   S
    H190   C293      1.10524      .   S
    H191   C294      1.10522      .   S
    H185   C292      1.10329      .   S
    H187   C294      1.10328      .   S
    H184   C291      1.10324      .   S
    H186   C293      1.10325      .   S
    H203   C302      1.09869      .   S
    H200   C299      1.09867      .   S
    H201   C300      1.09860      .   S
    H202   C301      1.09862      .   S
    C291   N347      1.47775      .   S
    C291   P12       1.82825  1_455   S
    C292   N348      1.47781      .   S
    C292   P13       1.82823  1_455   S
    C293   N349      1.47773      .   S
    C293   P14       1.82821      .   S
    C294   N350      1.47780      .   S
    C294   P15       1.82824      .   S
    N349   C301      1.46431      .   S
    N349   C297      1.46416      .   S
    N347   C299      1.46431      .   S
    N347   C295      1.46410      .   S
    N350   C302      1.46412      .   S
    N350   C298      1.46353      .   S
    N348   C300      1.46406      .   S
    N348   C296      1.46345      .   S
    H207   C302      1.09870      .   S
    H206   C301      1.09868      .   S
    H205   C300      1.09869      .   S
    H204   C299      1.09869      .   S
    C302   N354      1.49040      .   S
    C300   N352      1.49039      .   S
    C301   N353      1.49054      .   S
    C299   N351      1.49042      .   S
    H199   C298      1.09890      .   S
    H198   C297      1.09892      .   S
    H197   C296      1.09890      .   S
    H196   C295      1.09891      .   S
    H193   C296      1.09708      .   S
    H195   C298      1.09707      .   S
    H194   C297      1.09706      .   S
    H192   C295      1.09707      .   S
    C297   N345      1.48786      .   S
    C298   N346      1.48782      .   S
    C296   N344      1.48782      .   S
    C295   N343      1.48778      .   S
    H70    C288      1.10140      .   S
    H179   C290      1.10150      .   S
    H69    C287      1.10137      .   S
    H71    C289      1.10140      .   S
    P13    O178      1.50728      .   S
    P13    C290      1.83074      .   S
    P13    C284      1.83923  1_655   S
    P12    O177      1.50730      .   S
    P12    C289      1.83074      .   S
    P12    C283      1.83923  1_655   S
    P14    O367      1.50705      .   S
    P14    C287      1.83072      .   S
    P14    C285      1.83932      .   S
    P15    O176      1.50700      .   S
    P15    C288      1.83071      .   S
    P15    C286      1.83922      .   S
    N354   C288      1.48662      .   S
    N354   C306      1.48413      .   S
    N352   C290      1.48690  1_455   S
    N352   C304      1.48413      .   S
    N351   C289      1.48690  1_455   S
    N351   C303      1.48409      .   S
    N353   C287      1.48661      .   S
    N353   C305      1.48410      .   S
    C288   H181      1.10232      .   S
    C287   H180      1.10278      .   S
    C290   H183      1.10279      .   S
    C289   H182      1.10279      .   S
    H164   C282      1.09642      .   S
    H162   C280      1.09642      .   S
    H163   C281      1.09627      .   S
    H161   C279      1.09627      .   S
    H123   C261      1.10158      .   S
    H121   C259      1.10158      .   S
    H124   C262      1.10141      .   S
    H122   C260      1.10141      .   S
    N346   C286      1.48898      .   S
    N346   C306      1.48253      .   S
    N344   C284      1.48898      .   S
    N344   C304      1.48251      .   S
    N345   C285      1.48900      .   S
    N345   C305      1.48253      .   S
    N343   C283      1.48898      .   S
    N343   C303      1.48250      .   S
    H174   C284      1.10268      .   S
    H68    C286      1.10270      .   S
    H173   C283      1.10265      .   S
    H175   C285      1.10267      .   S
    H213   C304      1.09664      .   S
    H215   C306      1.09665      .   S
    H214   C305      1.09663      .   S
    H212   C303      1.09664      .   S
    C283   H169      1.10156      .   S
    C284   H170      1.10141      .   S
    C286   H172      1.10141      .   S
    C285   H171      1.10141      .   S
    C303   H208      1.09640      .   S
    C304   H209      1.09640      .   S
    C306   H211      1.09640      .   S
    C305   H210      1.09641      .   S
    H136   C266      1.10280      .   S
    H134   C264      1.10279      .   S
    H135   C265      1.10280      .   S
    H133   C263      1.10281      .   S
    C282   H168      1.09664      .   S
    C282   N334      1.48251      .   S
    C282   N342      1.48412      .   S
    C281   H167      1.09665      .   S
    C281   N333      1.48251      .   S
    C281   N341      1.48417      .   S
    C280   H166      1.09663      .   S
    C280   N332      1.48247      .   S
    C280   N340      1.48407      .   S
    C279   H165      1.09665      .   S
    C279   N331      1.48254      .   S
    C279   N339      1.48418      .   S
    C259   H126      1.10265      .   S
    C259   N331      1.48900      .   S
    C259   P8        1.83921      .   S
    C262   H127      1.10313  1_565   S
    C262   N334      1.48900      .   S
    C262   P11       1.83925      .   S
    C261   H128      1.10267      .   S
    C261   N333      1.48897      .   S
    C261   P10       1.83921      .   S
    C260   H125      1.10311  1_565   S
    C260   N332      1.48896      .   S
    C260   P9        1.83923      .   S
    N332   C272      1.48802      .   S
    N331   C271      1.48769      .   S
    N333   C273      1.48788      .   S
    N334   C274      1.48783      .   S
    C266   N342      1.48663      .   S
    C266   P11       1.83074      .   S
    C266   H132      1.10150      .   S
    C264   N340      1.48662      .   S
    C264   P9        1.83074      .   S
    C264   H130      1.10148      .   S
    C263   N339      1.48664      .   S
    C263   P8        1.83073      .   S
    C263   H129      1.10147      .   S
    C265   N341      1.48661      .   S
    C265   P10       1.83073      .   S
    C265   H131      1.10144      .   S
    N342   C278      1.49053      .   S
    N340   C276      1.49052      .   S
    N339   C275      1.49041      .   S
    N341   C277      1.49040      .   S
    O363   P9        1.50728      .   S
    O364   P8        1.50705      .   S
    O365   P11       1.50728      .   S
    O366   P10       1.50705      .   S
    P8     C267      1.82828      .   S
    P9     C268      1.82837      .   S
    P10    C269      1.82839      .   S
    P11    C270      1.82826      .   S
    C271   H147      1.09708      .   S
    C271   H149      1.09891      .   S
    C271   N335      1.46350      .   S
    C272   H148      1.09579      .   S
    C272   H150      1.09891      .   S
    C272   N336      1.46351      .   S
    C273   H145      1.09733  1_655   S
    C273   H151      1.09892      .   S
    C273   N337      1.46349      .   S
    C274   H146      1.09734  1_655   S
    C274   H152      1.09889      .   S
    C274   N338      1.46344      .   S
    C277   H159      1.09869      .   S
    C277   N337      1.46412      .   S
    C277   H155      1.09869      .   S
    C278   H160      1.09866      .   S
    C278   N338      1.46407      .   S
    C278   H156      1.09858      .   S
    C276   H158      1.09867      .   S
    C276   N336      1.46409      .   S
    C276   H154      1.09861      .   S
    C275   H157      1.09869      .   S
    C275   N335      1.46408      .   S
    C275   H153      1.09865      .   S
    N337   C269      1.47781      .   S
    N338   C270      1.47782      .   S
    N336   C268      1.47781      .   S
    N335   C267      1.47782      .   S
    C270   H139      1.10371  1_565   S
    C270   H144      1.10520      .   S
    C267   H138      1.10313      .   S
    C267   H141      1.10438      .   S
    C269   H140      1.10324      .   S
    C269   H143      1.10520      .   S
    C268   H137      1.10367  1_565   S
    C268   H142      1.10510      .   S
