# CIF file generated by openbabel 2.4.90, see http://openbabel.sf.net
data_I
_chemical_name_common ''
_cell_length_a 14.647
_cell_length_b 20.817
_cell_length_c 16.596
_cell_angle_alpha 89.997
_cell_angle_beta 90.006
_cell_angle_gamma 90.004
_space_group_name_H-M_alt 'P 1'
_space_group_name_Hall 'P 1'
loop_
    _symmetry_equiv_pos_as_xyz
    x,y,z
loop_
    _atom_site_label
    _atom_site_type_symbol
    _atom_site_fract_x
    _atom_site_fract_y
    _atom_site_fract_z
    _atom_site_occupancy
    Lv0     Lv   0.33826   0.33949   0.34561   1.000
    Lv1     Lv   0.08824   0.08879   0.15439   1.000
    Lv2     Lv   0.83825   0.33949   0.34560   1.000
    Lv3     Lv   0.83824   0.41049   0.84562   1.000
    Lv4     Lv   0.33825   0.41049   0.84561   1.000
    Lv5     Lv   0.08822   0.16050   0.65441   1.000
    Lv6     Lv   0.33823   0.91047   0.84558   1.000
    Lv7     Lv   0.08823   0.58949   0.15423   1.000
    Lv8     Lv   0.58821   0.16050   0.65441   1.000
    Lv9     Lv   0.83822   0.91048   0.84562   1.000
    Lv10    Lv   0.33824   0.83949   0.34559   1.000
    Lv11    Lv   0.58823   0.58949   0.15440   1.000
    Lv12    Lv   0.08822   0.66049   0.65441   1.000
    Lv13    Lv   0.83823   0.83949   0.34561   1.000
    Lv14    Lv   0.58822   0.66049   0.65441   1.000
    Lv15    Lv   0.58823   0.08879   0.15438   1.000
