# CIF file generated by openbabel 2.4.90, see http://openbabel.sf.net
data_I
_chemical_name_common ''
_cell_length_a 14.647
_cell_length_b 20.817
_cell_length_c 16.596
_cell_angle_alpha 89.997
_cell_angle_beta 90.006
_cell_angle_gamma 90.004
_space_group_name_H-M_alt 'P 1'
_space_group_name_Hall 'P 1'
loop_
    _symmetry_equiv_pos_as_xyz
    x,y,z
loop_
    _atom_site_label
    _atom_site_type_symbol
    _atom_site_fract_x
    _atom_site_fract_y
    _atom_site_fract_z
    _atom_site_occupancy
    N0      N    0.83824   0.41049   0.84562   1.000
    N1      N    0.33825   0.41049   0.84561   1.000
    N2      N    0.08822   0.16050   0.65441   1.000
    N3      N    0.33823   0.91047   0.84558   1.000
    N4      N    0.58821   0.16050   0.65441   1.000
    N5      N    0.83822   0.91048   0.84562   1.000
    N6      N    0.08822   0.66049   0.65441   1.000
    N7      N    0.58822   0.66049   0.65441   1.000
    Zr8     Zr   0.34233   0.67446   0.85829   1.000
    O9      O    0.40747   0.68338   0.77670   1.000
    O10     O    0.33669   0.75868   0.84400   1.000
    Zr11    Zr   0.34232   0.17447   0.85830   1.000
    O12     O    0.33670   0.25869   0.84402   1.000
    O13     O    0.40746   0.18339   0.77671   1.000
    Zr14    Zr   0.59229   0.92446   0.64173   1.000
    O15     O    0.65744   0.93338   0.72333   1.000
    O16     O    0.58666   0.00869   0.65602   1.000
    Zr17    Zr   0.03261   0.92446   0.64172   1.000
    O18     O    0.05683   0.00869   0.65601   1.000
    O19     O    0.12761   0.93338   0.72330   1.000
    Zr20    Zr   0.84231   0.17447   0.85830   1.000
    O21     O    0.83668   0.25869   0.84402   1.000
    O22     O    0.90745   0.18339   0.77671   1.000
    Zr23    Zr   0.59231   0.42447   0.64173   1.000
    O24     O    0.58668   0.50869   0.65601   1.000
    O25     O    0.65746   0.43339   0.72332   1.000
    Zr26    Zr   0.84232   0.67446   0.85829   1.000
    O27     O    0.83668   0.75868   0.84401   1.000
    O28     O    0.90746   0.68338   0.77670   1.000
    Zr29    Zr   0.03261   0.42447   0.64172   1.000
    O30     O    0.12761   0.43339   0.72332   1.000
    O31     O    0.05683   0.50869   0.65601   1.000
loop_
    _geom_bond_atom_site_label_1
    _geom_bond_atom_site_label_2
    _geom_bond_distance
    _geom_bond_site_symmetry_2
    _ccdc_geom_bond_type
    Zr8    O9        1.66688      .   S
    N7     O9        3.36995      .   S
    Zr8    O10       1.77110      .   S
    N3     O10       3.16016      .   S
    Zr11   O12       1.77113      .   S
    N1     O12       3.16022      .   S
    Zr11   O13       1.66691      .   S
    N4     O13       3.37000      .   S
    Zr14   O15       1.66686      .   S
    N5     O15       3.36992      .   S
    Zr14   O16       1.77127  1_565   S
    N4     O16       3.16045      .   S
    Zr17   O18       1.80454  1_565   S
    N2     O18       3.19366      .   S
    Zr17   O19       1.95026      .   S
    N3     O19       3.72304      .   S
    Zr20   O21       1.77112      .   S
    N0     O21       3.16018      .   S
    Zr20   O22       1.66694      .   S
    N2     O22       3.37016  1_455   S
    Zr23   O24       1.77110      .   S
    N7     O24       3.16019      .   S
    Zr23   O25       1.66683      .   S
    N0     O25       3.36992      .   S
    Zr26   O27       1.77108      .   S
    N5     O27       3.16017      .   S
    Zr26   O28       1.66690      .   S
    N6     O28       3.37006  1_455   S
    Zr29   O30       1.95038      .   S
    N1     O30       3.72335      .   S
    Zr29   O31       1.80435      .   S
    N6     O31       3.19334      .   S
