# CIF file generated by openbabel 2.4.90, see http://openbabel.sf.net
data_I
_chemical_name_common ''
_cell_length_a 14.647
_cell_length_b 20.817
_cell_length_c 16.596
_cell_angle_alpha 89.997
_cell_angle_beta 90.006
_cell_angle_gamma 90.004
_space_group_name_H-M_alt 'P 1'
_space_group_name_Hall 'P 1'
loop_
    _symmetry_equiv_pos_as_xyz
    x,y,z
loop_
    _atom_site_label
    _atom_site_type_symbol
    _atom_site_fract_x
    _atom_site_fract_y
    _atom_site_fract_z
    _atom_site_occupancy
    C0      C    0.31523   0.03535   0.30128   1.000
    C1      C    0.31524   0.53533   0.30129   1.000
    C2      C    0.81522   0.03535   0.30128   1.000
    C3      C    0.81523   0.53533   0.30129   1.000
    C4      C    0.36942   0.13428   0.91529   1.000
    C5      C    0.36945   0.63428   0.91528   1.000
    C6      C    0.86941   0.13428   0.91529   1.000
    C7      C    0.86944   0.63428   0.91528   1.000
    C8      C    0.06524   0.28534   0.19870   1.000
    C9      C    0.06523   0.78533   0.19870   1.000
    C10     C    0.56523   0.28534   0.19870   1.000
    C11     C    0.56522   0.78533   0.19871   1.000
    C12     C    0.61940   0.38429   0.58475   1.000
    C13     C    0.61938   0.88428   0.58474   1.000
    C14     C    0.00000   0.38429   0.58475   1.000
    C15     C    0.00000   0.88428   0.58474   1.000
    C16     C    0.06522   0.46465   0.69870   1.000
    C17     C    0.06521   0.96464   0.69870   1.000
    C18     C    0.56521   0.46465   0.69872   1.000
    C19     C    0.56520   0.96464   0.69873   1.000
    C20     C    0.61938   0.36572   0.08472   1.000
    C21     C    0.61935   0.86570   0.08472   1.000
    C22     C    0.00000   0.36572   0.08472   1.000
    C23     C    0.00000   0.86570   0.08472   1.000
    C24     C    0.31523   0.21465   0.80131   1.000
    C25     C    0.31521   0.71464   0.80130   1.000
    C26     C    0.81521   0.21465   0.80131   1.000
    C27     C    0.81520   0.71464   0.80130   1.000
    C28     C    0.36944   0.11570   0.41527   1.000
    C29     C    0.36941   0.61570   0.41528   1.000
    C30     C    0.86943   0.11570   0.41527   1.000
    C31     C    0.86940   0.61570   0.41528   1.000
    C32     C    0.98922   0.05026   0.16210   1.000
    C33     C    0.98922   0.55025   0.16211   1.000
    C34     C    0.48921   0.05027   0.16210   1.000
    C35     C    0.48921   0.55025   0.16211   1.000
    C36     C    0.23923   0.30025   0.33790   1.000
    C37     C    0.23922   0.80024   0.33790   1.000
    C38     C    0.73922   0.30025   0.33790   1.000
    C39     C    0.73921   0.80024   0.33790   1.000
    C40     C    0.23923   0.44973   0.83791   1.000
    C41     C    0.23922   0.94971   0.83791   1.000
    C42     C    0.73922   0.44972   0.83791   1.000
    C43     C    0.73920   0.94971   0.83791   1.000
    C44     C    0.98921   0.19974   0.66212   1.000
    C45     C    0.98921   0.69972   0.66212   1.000
    C46     C    0.48920   0.19973   0.66212   1.000
    C47     C    0.48920   0.69972   0.66212   1.000
    C48     C    0.06254   0.02952   0.29108   1.000
    C49     C    0.06254   0.52951   0.29109   1.000
    C50     C    0.56253   0.02952   0.29100   1.000
    C51     C    0.56253   0.52951   0.29109   1.000
    C52     C    0.09944   0.47397   0.21520   1.000
    C53     C    0.09945   0.97396   0.21519   1.000
    C54     C    0.59943   0.47397   0.21520   1.000
    C55     C    0.59944   0.97396   0.21519   1.000
    C56     C    0.44182   0.16133   0.14287   1.000
    C57     C    0.44181   0.66132   0.14287   1.000
    C58     C    0.94181   0.16133   0.14287   1.000
    C59     C    0.94180   0.66132   0.14287   1.000
    C60     C    0.46560   0.14346   0.24600   1.000
    C61     C    0.46559   0.64345   0.24603   1.000
    C62     C    0.96559   0.14346   0.24602   1.000
    C63     C    0.96558   0.64345   0.24603   1.000
    C64     C    0.06064   0.49907   0.04629   1.000
    C65     C    0.06064   0.99906   0.04628   1.000
    C66     C    0.56063   0.49906   0.04629   1.000
    C67     C    0.56063   0.99906   0.04628   1.000
    C68     C    0.00095   0.07034   0.01764   1.000
    C69     C    0.00094   0.57033   0.01765   1.000
    C70     C    0.50093   0.07034   0.01764   1.000
    C71     C    0.50093   0.57033   0.01760   1.000
    C72     C    0.26195   0.08276   0.12111   1.000
    C73     C    0.26195   0.58275   0.12112   1.000
    C74     C    0.76195   0.08276   0.12111   1.000
    C75     C    0.76194   0.58275   0.12112   1.000
    C76     C    0.20603   0.00725   0.11376   1.000
    C77     C    0.20602   0.50723   0.11377   1.000
    C78     C    0.70602   0.00725   0.11376   1.000
    C79     C    0.70601   0.50723   0.11377   1.000
    C80     C    0.06546   0.17456   0.04766   1.000
    C81     C    0.06546   0.67455   0.04767   1.000
    C82     C    0.56545   0.17456   0.04766   1.000
    C83     C    0.56545   0.67455   0.04767   1.000
    C84     C    0.18002   0.18032   0.08289   1.000
    C85     C    0.18002   0.68031   0.08290   1.000
    C86     C    0.68002   0.18033   0.08289   1.000
    C87     C    0.68001   0.68031   0.08290   1.000
    C88     C    0.12399   0.13897   0.29185   1.000
    C89     C    0.12399   0.63896   0.29186   1.000
    C90     C    0.62398   0.13897   0.29186   1.000
    C91     C    0.62398   0.63896   0.29186   1.000
    C92     C    0.21339   0.15920   0.22446   1.000
    C93     C    0.21339   0.65919   0.22446   1.000
    C94     C    0.71339   0.15920   0.22446   1.000
    C95     C    0.71338   0.65919   0.22446   1.000
    C96     C    0.31252   0.27952   0.20892   1.000
    C97     C    0.31251   0.77951   0.20892   1.000
    C98     C    0.81251   0.27952   0.20892   1.000
    C99     C    0.81250   0.77951   0.20892   1.000
    C100    C    0.34944   0.22397   0.28481   1.000
    C101    C    0.34944   0.72396   0.28480   1.000
    C102    C    0.84943   0.22397   0.28481   1.000
    C103    C    0.84943   0.72396   0.28482   1.000
    C104    C    0.19185   0.41132   0.35714   1.000
    C105    C    0.19183   0.91131   0.35713   1.000
    C106    C    0.69184   0.41132   0.35714   1.000
    C107    C    0.69182   0.91131   0.35713   1.000
    C108    C    0.21560   0.39346   0.25399   1.000
    C109    C    0.21559   0.89344   0.25398   1.000
    C110    C    0.71559   0.39346   0.25390   1.000
    C111    C    0.71558   0.89344   0.25398   1.000
    C112    C    0.31068   0.24905   0.45372   1.000
    C113    C    0.31067   0.74905   0.45372   1.000
    C114    C    0.81067   0.24905   0.45372   1.000
    C115    C    0.81066   0.74905   0.45372   1.000
    C116    C    0.25100   0.32031   0.48236   1.000
    C117    C    0.25098   0.82031   0.48236   1.000
    C118    C    0.75099   0.32031   0.48236   1.000
    C119    C    0.75097   0.82031   0.48236   1.000
    C120    C    0.01199   0.33273   0.37889   1.000
    C121    C    0.01197   0.83273   0.37889   1.000
    C122    C    0.51198   0.33273   0.37889   1.000
    C123    C    0.51196   0.83273   0.37889   1.000
    C124    C    0.45605   0.25722   0.38623   1.000
    C125    C    0.45604   0.75722   0.38620   1.000
    C126    C    0.95604   0.25722   0.38623   1.000
    C127    C    0.95603   0.75722   0.38624   1.000
    C128    C    0.31552   0.42454   0.45234   1.000
    C129    C    0.31550   0.92453   0.45233   1.000
    C130    C    0.81551   0.42454   0.45234   1.000
    C131    C    0.81549   0.92453   0.45233   1.000
    C132    C    0.43007   0.43030   0.41711   1.000
    C133    C    0.43005   0.93030   0.41710   1.000
    C134    C    0.93006   0.43030   0.41711   1.000
    C135    C    0.93003   0.93030   0.41710   1.000
    C136    C    0.37398   0.38896   0.20815   1.000
    C137    C    0.37396   0.88895   0.20814   1.000
    C138    C    0.87397   0.38896   0.20815   1.000
    C139    C    0.87395   0.88895   0.20814   1.000
    C140    C    0.46340   0.40919   0.27555   1.000
    C141    C    0.46338   0.90918   0.27554   1.000
    C142    C    0.96339   0.40919   0.27555   1.000
    C143    C    0.96337   0.90918   0.27554   1.000
    C144    C    0.31251   0.47046   0.70892   1.000
    C145    C    0.31250   0.97045   0.70893   1.000
    C146    C    0.81250   0.47046   0.70892   1.000
    C147    C    0.81249   0.97045   0.70893   1.000
    C148    C    0.34944   0.02602   0.78482   1.000
    C149    C    0.34944   0.52602   0.78481   1.000
    C150    C    0.84943   0.02602   0.78482   1.000
    C151    C    0.84944   0.52601   0.78482   1.000
    C152    C    0.19183   0.33866   0.85716   1.000
    C153    C    0.19181   0.83864   0.85715   1.000
    C154    C    0.69182   0.33865   0.85716   1.000
    C155    C    0.69180   0.83864   0.85715   1.000
    C156    C    0.21558   0.35653   0.75400   1.000
    C157    C    0.21556   0.85652   0.75399   1.000
    C158    C    0.71557   0.35653   0.75400   1.000
    C159    C    0.71556   0.85652   0.75399   1.000
    C160    C    0.31068   0.00092   0.95373   1.000
    C161    C    0.31069   0.50092   0.95370   1.000
    C162    C    0.81067   0.00092   0.95373   1.000
    C163    C    0.81068   0.50092   0.95373   1.000
    C164    C    0.25100   0.42966   0.98230   1.000
    C165    C    0.25098   0.92964   0.98237   1.000
    C166    C    0.75098   0.42966   0.98238   1.000
    C167    C    0.75097   0.92964   0.98237   1.000
    C168    C    0.01198   0.41725   0.87889   1.000
    C169    C    0.01196   0.91723   0.87889   1.000
    C170    C    0.51197   0.41725   0.87889   1.000
    C171    C    0.51195   0.91722   0.87800   1.000
    C172    C    0.45605   0.49276   0.88623   1.000
    C173    C    0.45604   0.99274   0.88624   1.000
    C174    C    0.95604   0.49276   0.88624   1.000
    C175    C    0.95603   0.99274   0.88624   1.000
    C176    C    0.31550   0.32544   0.95236   1.000
    C177    C    0.31547   0.82542   0.95235   1.000
    C178    C    0.81548   0.32544   0.95236   1.000
    C179    C    0.81546   0.82542   0.95235   1.000
    C180    C    0.43005   0.31968   0.91712   1.000
    C181    C    0.43002   0.81965   0.91710   1.000
    C182    C    0.93004   0.31968   0.91712   1.000
    C183    C    0.93001   0.81966   0.91711   1.000
    C184    C    0.37395   0.36102   0.70816   1.000
    C185    C    0.37394   0.86101   0.70815   1.000
    C186    C    0.87394   0.36102   0.70816   1.000
    C187    C    0.87393   0.86101   0.70815   1.000
    C188    C    0.46337   0.34080   0.77555   1.000
    C189    C    0.46336   0.84078   0.77555   1.000
    C190    C    0.96336   0.34080   0.77555   1.000
    C191    C    0.96335   0.84078   0.77555   1.000
    C192    C    0.06253   0.22046   0.79111   1.000
    C193    C    0.06253   0.72045   0.79110   1.000
    C194    C    0.56252   0.22046   0.79111   1.000
    C195    C    0.56252   0.72045   0.79110   1.000
    C196    C    0.09944   0.27602   0.71522   1.000
    C197    C    0.09945   0.77601   0.71521   1.000
    C198    C    0.59944   0.27602   0.71522   1.000
    C199    C    0.59943   0.77601   0.71521   1.000
    C200    C    0.44179   0.08867   0.64289   1.000
    C201    C    0.44180   0.58866   0.64288   1.000
    C202    C    0.94178   0.08867   0.64289   1.000
    C203    C    0.94179   0.58865   0.64288   1.000
    C204    C    0.46557   0.10653   0.74604   1.000
    C205    C    0.46558   0.60652   0.74600   1.000
    C206    C    0.96557   0.10653   0.74604   1.000
    C207    C    0.96557   0.60652   0.74604   1.000
    C208    C    0.06064   0.25094   0.54631   1.000
    C209    C    0.06064   0.75093   0.54630   1.000
    C210    C    0.56063   0.25094   0.54631   1.000
    C211    C    0.56063   0.75093   0.54630   1.000
    C212    C    0.00094   0.17968   0.51766   1.000
    C213    C    0.00094   0.67966   0.51766   1.000
    C214    C    0.50092   0.17967   0.51766   1.000
    C215    C    0.50093   0.67967   0.51766   1.000
    C216    C    0.26194   0.16726   0.62114   1.000
    C217    C    0.26194   0.66725   0.62113   1.000
    C218    C    0.76193   0.16725   0.62114   1.000
    C219    C    0.76193   0.66725   0.62113   1.000
    C220    C    0.20602   0.24276   0.61380   1.000
    C221    C    0.20602   0.74275   0.61379   1.000
    C222    C    0.70601   0.24276   0.61379   1.000
    C223    C    0.70601   0.74276   0.61379   1.000
    C224    C    0.06545   0.07546   0.54768   1.000
    C225    C    0.06544   0.57544   0.54768   1.000
    C226    C    0.56543   0.07545   0.54768   1.000
    C227    C    0.56544   0.57545   0.54767   1.000
    C228    C    0.18000   0.06969   0.58291   1.000
    C229    C    0.18000   0.56968   0.58291   1.000
    C230    C    0.67999   0.06969   0.58291   1.000
    C231    C    0.68000   0.56968   0.58290   1.000
    C232    C    0.12397   0.11102   0.79187   1.000
    C233    C    0.12397   0.61101   0.79187   1.000
    C234    C    0.62396   0.11102   0.79188   1.000
    C235    C    0.62397   0.61101   0.79187   1.000
    C236    C    0.21337   0.09080   0.72448   1.000
    C237    C    0.21337   0.59079   0.72447   1.000
    C238    C    0.71336   0.09080   0.72448   1.000
    C239    C    0.71337   0.59079   0.72447   1.000
    C240    C    0.08377   0.02482   0.22769   1.000
    C241    C    0.08376   0.52481   0.22769   1.000
    C242    C    0.58376   0.02482   0.22769   1.000
    C243    C    0.58375   0.52481   0.22770   1.000
    C244    C    0.48954   0.13652   0.18363   1.000
    C245    C    0.48954   0.63650   0.18364   1.000
    C246    C    0.98954   0.13652   0.18363   1.000
    C247    C    0.98953   0.63650   0.18364   1.000
    C248    C    0.04595   0.04910   0.06399   1.000
    C249    C    0.04595   0.54909   0.06000   1.000
    C250    C    0.54594   0.04910   0.06390   1.000
    C251    C    0.54594   0.54909   0.06399   1.000
    C252    C    0.19587   0.05843   0.12726   1.000
    C253    C    0.19587   0.55842   0.12727   1.000
    C254    C    0.69587   0.05843   0.12720   1.000
    C255    C    0.69586   0.55842   0.12726   1.000
    C256    C    0.11553   0.15391   0.08961   1.000
    C257    C    0.11552   0.65390   0.08961   1.000
    C258    C    0.61552   0.15391   0.08960   1.000
    C259    C    0.61551   0.65390   0.08961   1.000
    C260    C    0.14837   0.13342   0.22979   1.000
    C261    C    0.14837   0.63341   0.22980   1.000
    C262    C    0.64837   0.13342   0.22979   1.000
    C263    C    0.64836   0.63341   0.22980   1.000
    C264    C    0.33376   0.27481   0.27231   1.000
    C265    C    0.33375   0.77480   0.27231   1.000
    C266    C    0.83375   0.27481   0.27231   1.000
    C267    C    0.83374   0.77480   0.27230   1.000
    C268    C    0.23957   0.38651   0.31630   1.000
    C269    C    0.23955   0.88650   0.31637   1.000
    C270    C    0.73956   0.38651   0.31630   1.000
    C271    C    0.73955   0.88650   0.31637   1.000
    C272    C    0.29599   0.29908   0.43602   1.000
    C273    C    0.29597   0.79907   0.43600   1.000
    C274    C    0.79598   0.29908   0.43602   1.000
    C275    C    0.79596   0.79908   0.43601   1.000
    C276    C    0.44589   0.30841   0.37274   1.000
    C277    C    0.44588   0.80841   0.37274   1.000
    C278    C    0.94589   0.30841   0.37274   1.000
    C279    C    0.94587   0.80841   0.37274   1.000
    C280    C    0.36557   0.40388   0.41040   1.000
    C281    C    0.36555   0.90388   0.41000   1.000
    C282    C    0.86556   0.40388   0.41040   1.000
    C283    C    0.86554   0.90388   0.41039   1.000
    C284    C    0.39837   0.38341   0.27022   1.000
    C285    C    0.39836   0.88341   0.27021   1.000
    C286    C    0.89836   0.38341   0.27022   1.000
    C287    C    0.89835   0.88340   0.27021   1.000
    C288    C    0.33375   0.47517   0.77232   1.000
    C289    C    0.33375   0.97516   0.77232   1.000
    C290    C    0.83374   0.47517   0.77232   1.000
    C291    C    0.83373   0.97516   0.77232   1.000
    C292    C    0.23955   0.36347   0.81639   1.000
    C293    C    0.23953   0.86346   0.81638   1.000
    C294    C    0.73954   0.36347   0.81639   1.000
    C295    C    0.73952   0.86346   0.81638   1.000
    C296    C    0.29599   0.45090   0.93602   1.000
    C297    C    0.29597   0.95088   0.93603   1.000
    C298    C    0.79597   0.45090   0.93603   1.000
    C299    C    0.79596   0.95088   0.93602   1.000
    C300    C    0.44589   0.44157   0.87274   1.000
    C301    C    0.44588   0.94155   0.87275   1.000
    C302    C    0.94588   0.44157   0.87275   1.000
    C303    C    0.94587   0.94155   0.87275   1.000
    C304    C    0.36555   0.34609   0.91041   1.000
    C305    C    0.36553   0.84607   0.91041   1.000
    C306    C    0.86554   0.34609   0.91041   1.000
    C307    C    0.86552   0.84607   0.91041   1.000
    C308    C    0.39835   0.36657   0.77022   1.000
    C309    C    0.39834   0.86655   0.77022   1.000
    C310    C    0.89834   0.36657   0.77022   1.000
    C311    C    0.89833   0.86656   0.77022   1.000
    C312    C    0.08375   0.22518   0.72771   1.000
    C313    C    0.08376   0.72516   0.72771   1.000
    C314    C    0.58374   0.22518   0.72772   1.000
    C315    C    0.58375   0.72517   0.72771   1.000
    C316    C    0.48952   0.11348   0.68365   1.000
    C317    C    0.48953   0.61347   0.68364   1.000
    C318    C    0.98952   0.11348   0.68365   1.000
    C319    C    0.98952   0.61347   0.68365   1.000
    C320    C    0.04594   0.20091   0.56401   1.000
    C321    C    0.04594   0.70090   0.56401   1.000
    C322    C    0.54593   0.20091   0.56401   1.000
    C323    C    0.54593   0.70090   0.56401   1.000
    C324    C    0.19586   0.19158   0.62729   1.000
    C325    C    0.19586   0.69157   0.62728   1.000
    C326    C    0.69586   0.19158   0.62728   1.000
    C327    C    0.69586   0.69157   0.62728   1.000
    C328    C    0.11551   0.09611   0.58963   1.000
    C329    C    0.11551   0.59609   0.58962   1.000
    C330    C    0.61550   0.09610   0.58962   1.000
    C331    C    0.61550   0.59610   0.58962   1.000
    C332    C    0.14835   0.11658   0.72980   1.000
    C333    C    0.14836   0.61656   0.72980   1.000
    C334    C    0.64834   0.11657   0.72981   1.000
    C335    C    0.64835   0.61656   0.72980   1.000
    C336    C    0.16645   0.06469   0.21270   1.000
    C337    C    0.16644   0.56468   0.21270   1.000
    C338    C    0.66643   0.06469   0.21269   1.000
    C339    C    0.66642   0.56468   0.21270   1.000
    C340    C    0.13161   0.08636   0.06953   1.000
    C341    C    0.13160   0.58635   0.06954   1.000
    C342    C    0.63159   0.08636   0.06954   1.000
    C343    C    0.63159   0.58635   0.06955   1.000
    C344    C    0.08256   0.16398   0.17362   1.000
    C345    C    0.08256   0.66397   0.17363   1.000
    C346    C    0.58255   0.16398   0.17362   1.000
    C347    C    0.58255   0.66396   0.17362   1.000
    C348    C    0.41644   0.31468   0.28730   1.000
    C349    C    0.41643   0.81467   0.28730   1.000
    C350    C    0.91643   0.31468   0.28730   1.000
    C351    C    0.91642   0.81467   0.28730   1.000
    C352    C    0.38164   0.33634   0.43047   1.000
    C353    C    0.38163   0.83634   0.43046   1.000
    C354    C    0.88163   0.33634   0.43040   1.000
    C355    C    0.88162   0.83634   0.43046   1.000
    C356    C    0.33258   0.41397   0.32639   1.000
    C357    C    0.33256   0.91396   0.32638   1.000
    C358    C    0.83257   0.41397   0.32639   1.000
    C359    C    0.83255   0.91396   0.32638   1.000
    C360    C    0.41643   0.43531   0.78731   1.000
    C361    C    0.41641   0.93529   0.78730   1.000
    C362    C    0.91642   0.43531   0.78731   1.000
    C363    C    0.91641   0.93529   0.78731   1.000
    C364    C    0.38164   0.41364   0.93047   1.000
    C365    C    0.38161   0.91362   0.93047   1.000
    C366    C    0.88162   0.41364   0.93047   1.000
    C367    C    0.88161   0.91362   0.93047   1.000
    C368    C    0.33256   0.33602   0.82640   1.000
    C369    C    0.33254   0.83600   0.82639   1.000
    C370    C    0.83254   0.33602   0.82640   1.000
    C371    C    0.83253   0.83600   0.82639   1.000
    C372    C    0.16643   0.18532   0.71273   1.000
    C373    C    0.16643   0.68530   0.71272   1.000
    C374    C    0.66641   0.18531   0.71272   1.000
    C375    C    0.66642   0.68530   0.71272   1.000
    C376    C    0.13159   0.16366   0.56950   1.000
    C377    C    0.13159   0.66364   0.56956   1.000
    C378    C    0.63157   0.16365   0.56950   1.000
    C379    C    0.63158   0.66364   0.56955   1.000
    C380    C    0.08253   0.08602   0.67364   1.000
    C381    C    0.08254   0.58601   0.67363   1.000
    C382    C    0.58252   0.08603   0.67364   1.000
    C383    C    0.58253   0.58601   0.67363   1.000
    C384    C    0.39875   0.51638   0.17031   1.000
    C385    C    0.39875   0.00000   0.17031   1.000
    C386    C    0.89874   0.51638   0.17031   1.000
    C387    C    0.89874   0.00000   0.17031   1.000
    C388    C    0.14877   0.26638   0.32969   1.000
    C389    C    0.14876   0.76637   0.32969   1.000
    C390    C    0.64876   0.26638   0.32969   1.000
    C391    C    0.64875   0.76637   0.32969   1.000
    C392    C    0.14876   0.98361   0.82970   1.000
    C393    C    0.14877   0.48359   0.82970   1.000
    C394    C    0.64875   0.98361   0.82970   1.000
    C395    C    0.64876   0.48359   0.82970   1.000
    C396    C    0.39875   0.23360   0.67033   1.000
    C397    C    0.39875   0.73359   0.67030   1.000
    C398    C    0.89873   0.23360   0.67033   1.000
    C399    C    0.89874   0.73359   0.67030   1.000
    O400    O    0.52343   0.55971   0.04079   1.000
    O401    O    0.52344   0.05972   0.04077   1.000
    O402    O    0.02345   0.05972   0.04081   1.000
    O403    O    0.02345   0.55971   0.03882   1.000
    O404    O    0.05330   0.02408   0.05514   1.000
    O405    O    0.55328   0.02408   0.05509   1.000
    O406    O    0.05329   0.52408   0.05314   1.000
    O407    O    0.55328   0.52408   0.05514   1.000
    O408    O    0.59049   0.16424   0.06863   1.000
    O409    O    0.09049   0.16424   0.06863   1.000
    O410    O    0.09049   0.66422   0.06864   1.000
    O411    O    0.59048   0.66422   0.06864   1.000
    O412    O    0.08878   0.56772   0.06477   1.000
    O413    O    0.01758   0.54967   0.11105   1.000
    O414    O    0.58876   0.06773   0.06672   1.000
    O415    O    0.51758   0.04968   0.11300   1.000
    O416    O    0.08878   0.06773   0.06676   1.000
    O417    O    0.01758   0.04968   0.11304   1.000
    O418    O    0.58876   0.56772   0.06677   1.000
    O419    O    0.51757   0.54967   0.11305   1.000
    O420    O    0.12357   0.12014   0.07957   1.000
    O421    O    0.16374   0.07240   0.09839   1.000
    O422    O    0.62355   0.12014   0.07957   1.000
    O423    O    0.66373   0.07240   0.09837   1.000
    O424    O    0.12356   0.62012   0.07957   1.000
    O425    O    0.16374   0.57238   0.09840   1.000
    O426    O    0.62355   0.62012   0.07958   1.000
    O427    O    0.66373   0.57238   0.09841   1.000
    O428    O    0.64777   0.16712   0.08624   1.000
    O429    O    0.14777   0.16712   0.08625   1.000
    O430    O    0.14777   0.66710   0.08625   1.000
    O431    O    0.64776   0.66711   0.08625   1.000
    O432    O    0.03262   0.32553   0.14171   1.000
    O433    O    0.03261   0.82552   0.14171   1.000
    O434    O    0.59229   0.82552   0.14172   1.000
    O435    O    0.59230   0.32553   0.14171   1.000
    O436    O    0.59904   0.15894   0.13161   1.000
    O437    O    0.09904   0.15895   0.13161   1.000
    O438    O    0.59903   0.65893   0.13161   1.000
    O439    O    0.09904   0.65893   0.13162   1.000
    O440    O    0.20095   0.03284   0.12051   1.000
    O441    O    0.70094   0.03284   0.12048   1.000
    O442    O    0.20095   0.53283   0.12052   1.000
    O443    O    0.70094   0.53282   0.12051   1.000
    O444    O    0.22891   0.07059   0.12419   1.000
    O445    O    0.72891   0.07060   0.12416   1.000
    O446    O    0.72890   0.57058   0.12419   1.000
    O447    O    0.22891   0.57058   0.12419   1.000
    O448    O    0.68115   0.06156   0.16994   1.000
    O449    O    0.18116   0.06156   0.16998   1.000
    O450    O    0.68114   0.56155   0.16998   1.000
    O451    O    0.18115   0.56155   0.16998   1.000
    O452    O    0.46568   0.14893   0.16325   1.000
    O453    O    0.46568   0.64891   0.16325   1.000
    O454    O    0.96567   0.14892   0.16325   1.000
    O455    O    0.96567   0.64891   0.16325   1.000
    O456    O    0.94398   0.02513   0.16620   1.000
    O457    O    0.98938   0.09339   0.17286   1.000
    O458    O    0.03649   0.03754   0.19489   1.000
    O459    O    0.44398   0.02513   0.16620   1.000
    O460    O    0.48938   0.09339   0.17286   1.000
    O461    O    0.53648   0.03754   0.19489   1.000
    O462    O    0.44398   0.53332   0.16621   1.000
    O463    O    0.48937   0.59338   0.17287   1.000
    O464    O    0.53648   0.53753   0.19490   1.000
    O465    O    0.94398   0.53331   0.16621   1.000
    O466    O    0.98937   0.59338   0.17287   1.000
    O467    O    0.03649   0.53753   0.19490   1.000
    O468    O    0.35700   0.52585   0.23580   1.000
    O469    O    0.85699   0.52585   0.23580   1.000
    O470    O    0.03605   0.15025   0.17862   1.000
    O471    O    0.07390   0.22466   0.18616   1.000
    O472    O    0.11547   0.14870   0.20170   1.000
    O473    O    0.53605   0.15025   0.17862   1.000
    O474    O    0.57389   0.22466   0.18616   1.000
    O475    O    0.61546   0.14870   0.20170   1.000
    O476    O    0.53604   0.65023   0.17863   1.000
    O477    O    0.57388   0.72465   0.18616   1.000
    O478    O    0.61545   0.64869   0.20171   1.000
    O479    O    0.03605   0.65024   0.17863   1.000
    O480    O    0.07389   0.72465   0.18616   1.000
    O481    O    0.11546   0.64869   0.20171   1.000
    O482    O    0.97756   0.13999   0.21482   1.000
    O483    O    0.47757   0.13999   0.21481   1.000
    O484    O    0.47757   0.63998   0.21483   1.000
    O485    O    0.97756   0.63997   0.21483   1.000
    O486    O    0.10700   0.27586   0.26419   1.000
    O487    O    0.10699   0.77585   0.26419   1.000
    O488    O    0.60699   0.27586   0.26419   1.000
    O489    O    0.60698   0.77585   0.26420   1.000
    O490    O    0.38616   0.88618   0.23917   1.000
    O491    O    0.88615   0.88618   0.23917   1.000
    O492    O    0.38618   0.38619   0.23918   1.000
    O493    O    0.88617   0.38619   0.23918   1.000
    O494    O    0.82313   0.27717   0.24061   1.000
    O495    O    0.82312   0.77716   0.24061   1.000
    O496    O    0.32313   0.77716   0.24061   1.000
    O497    O    0.32314   0.27717   0.24061   1.000
    O498    O    0.62509   0.04476   0.22019   1.000
    O499    O    0.65740   0.09906   0.22124   1.000
    O500    O    0.12511   0.04475   0.22020   1.000
    O501    O    0.15741   0.09906   0.22124   1.000
    O502    O    0.62509   0.54474   0.22020   1.000
    O503    O    0.65739   0.59905   0.22125   1.000
    O504    O    0.12510   0.54474   0.22020   1.000
    O505    O    0.15740   0.59904   0.22125   1.000
    O506    O    0.59160   0.99939   0.22144   1.000
    O507    O    0.09161   0.99939   0.22144   1.000
    O508    O    0.59159   0.49939   0.22145   1.000
    O509    O    0.09160   0.49939   0.22144   1.000
    O510    O    0.68087   0.64630   0.22713   1.000
    O511    O    0.68088   0.14631   0.22712   1.000
    O512    O    0.18088   0.64630   0.22713   1.000
    O513    O    0.18088   0.14631   0.22712   1.000
    O514    O    0.07316   0.02717   0.25938   1.000
    O515    O    0.57314   0.02717   0.25934   1.000
    O516    O    0.07315   0.52716   0.25939   1.000
    O517    O    0.57314   0.52716   0.25939   1.000
    O518    O    0.13618   0.13620   0.26082   1.000
    O519    O    0.63617   0.13620   0.26082   1.000
    O520    O    0.13618   0.63618   0.26083   1.000
    O521    O    0.63617   0.63618   0.26083   1.000
    O522    O    0.72758   0.38998   0.28510   1.000
    O523    O    0.72756   0.88997   0.28517   1.000
    O524    O    0.22757   0.88997   0.28517   1.000
    O525    O    0.22759   0.38998   0.28514   1.000
    O526    O    0.43087   0.89629   0.27287   1.000
    O527    O    0.40739   0.84904   0.27875   1.000
    O528    O    0.36546   0.89868   0.29829   1.000
    O529    O    0.93086   0.89629   0.27287   1.000
    O530    O    0.90738   0.84904   0.27875   1.000
    O531    O    0.86545   0.89868   0.29829   1.000
    O532    O    0.93088   0.39630   0.27288   1.000
    O533    O    0.90740   0.34904   0.27876   1.000
    O534    O    0.86547   0.39869   0.29831   1.000
    O535    O    0.43089   0.39630   0.27288   1.000
    O536    O    0.40741   0.34904   0.27876   1.000
    O537    O    0.36548   0.39869   0.29831   1.000
    O538    O    0.84158   0.74938   0.27856   1.000
    O539    O    0.87508   0.79474   0.27980   1.000
    O540    O    0.78648   0.78752   0.30510   1.000
    O541    O    0.34159   0.74938   0.27855   1.000
    O542    O    0.37509   0.79474   0.27980   1.000
    O543    O    0.28649   0.78752   0.30510   1.000
    O544    O    0.34160   0.24939   0.27856   1.000
    O545    O    0.37510   0.29474   0.27980   1.000
    O546    O    0.28650   0.28753   0.30510   1.000
    O547    O    0.84159   0.24939   0.27856   1.000
    O548    O    0.87509   0.29474   0.27980   1.000
    O549    O    0.78649   0.28753   0.30510   1.000
    O550    O    0.43117   0.31154   0.33002   1.000
    O551    O    0.43116   0.81154   0.33002   1.000
    O552    O    0.93116   0.31154   0.33002   1.000
    O553    O    0.93115   0.81154   0.33002   1.000
    O554    O    0.82389   0.97465   0.31383   1.000
    O555    O    0.84233   0.07552   0.35827   1.000
    O556    O    0.32390   0.97465   0.31383   1.000
    O557    O    0.34234   0.07552   0.35827   1.000
    O558    O    0.32391   0.47465   0.31384   1.000
    O559    O    0.34233   0.57551   0.35828   1.000
    O560    O    0.82390   0.47465   0.31384   1.000
    O561    O    0.84232   0.57551   0.35828   1.000
    O562    O    0.78606   0.40024   0.32135   1.000
    O563    O    0.73939   0.34338   0.32710   1.000
    O564    O    0.71570   0.39891   0.33672   1.000
    O565    O    0.28607   0.40024   0.32135   1.000
    O566    O    0.23940   0.34338   0.32710   1.000
    O567    O    0.21571   0.39891   0.33672   1.000
    O568    O    0.78605   0.90023   0.32137   1.000
    O569    O    0.73938   0.84337   0.32713   1.000
    O570    O    0.71568   0.89890   0.33675   1.000
    O571    O    0.28606   0.90023   0.32137   1.000
    O572    O    0.23939   0.84337   0.32713   1.000
    O573    O    0.21569   0.89890   0.33675   1.000
    O574    O    0.84904   0.90892   0.36838   1.000
    O575    O    0.34906   0.90892   0.36819   1.000
    O576    O    0.34907   0.40893   0.36840   1.000
    O577    O    0.84906   0.40893   0.36840   1.000
    O578    O    0.69398   0.78331   0.33379   1.000
    O579    O    0.69399   0.28332   0.33379   1.000
    O580    O    0.19399   0.78331   0.33379   1.000
    O581    O    0.19400   0.28332   0.33379   1.000
    O582    O    0.76759   0.79966   0.38695   1.000
    O583    O    0.26760   0.79966   0.38695   1.000
    O584    O    0.76760   0.29967   0.38696   1.000
    O585    O    0.26761   0.29967   0.38696   1.000
    O586    O    0.47894   0.32057   0.37581   1.000
    O587    O    0.45097   0.28282   0.37949   1.000
    O588    O    0.41377   0.32237   0.40160   1.000
    O589    O    0.47892   0.82057   0.37581   1.000
    O590    O    0.45096   0.78281   0.37947   1.000
    O591    O    0.41376   0.82237   0.40160   1.000
    O592    O    0.97894   0.32057   0.37581   1.000
    O593    O    0.95096   0.28282   0.37949   1.000
    O594    O    0.91376   0.32237   0.40157   1.000
    O595    O    0.97892   0.82057   0.37581   1.000
    O596    O    0.95095   0.78281   0.37949   1.000
    O597    O    0.91374   0.82237   0.40160   1.000
    O598    O    0.39780   0.91709   0.41355   1.000
    O599    O    0.37359   0.87011   0.42023   1.000
    O600    O    0.34052   0.91421   0.43116   1.000
    O601    O    0.89779   0.91709   0.41374   1.000
    O602    O    0.87358   0.87011   0.42042   1.000
    O603    O    0.84051   0.91421   0.43136   1.000
    O604    O    0.39782   0.41709   0.41375   1.000
    O605    O    0.37361   0.37011   0.42043   1.000
    O606    O    0.34054   0.41421   0.43137   1.000
    O607    O    0.89781   0.41709   0.41375   1.000
    O608    O    0.87359   0.37011   0.42040   1.000
    O609    O    0.84053   0.41421   0.43137   1.000
    O610    O    0.83880   0.31771   0.43321   1.000
    O611    O    0.83879   0.81771   0.43323   1.000
    O612    O    0.33880   0.81771   0.43323   1.000
    O613    O    0.33881   0.31771   0.43324   1.000
    O614    O    0.30332   0.77406   0.44486   1.000
    O615    O    0.27348   0.80969   0.45918   1.000
    O616    O    0.80331   0.77406   0.44486   1.000
    O617    O    0.77347   0.80969   0.45919   1.000
    O618    O    0.30333   0.27407   0.44487   1.000
    O619    O    0.27349   0.30970   0.45919   1.000
    O620    O    0.80332   0.27407   0.44487   1.000
    O621    O    0.77348   0.30970   0.45919   1.000
    O622    O    0.02344   0.69028   0.54083   1.000
    O623    O    0.02344   0.19030   0.54083   1.000
    O624    O    0.52343   0.19029   0.54083   1.000
    O625    O    0.52343   0.69028   0.54083   1.000
    O626    O    0.05329   0.72591   0.55516   1.000
    O627    O    0.55328   0.72592   0.55516   1.000
    O628    O    0.05329   0.22593   0.55516   1.000
    O629    O    0.55328   0.22593   0.55516   1.000
    O630    O    0.59047   0.58577   0.56864   1.000
    O631    O    0.09048   0.08578   0.56865   1.000
    O632    O    0.09048   0.58577   0.56865   1.000
    O633    O    0.59046   0.08578   0.56865   1.000
    O634    O    0.08877   0.18228   0.56676   1.000
    O635    O    0.01757   0.20032   0.61306   1.000
    O636    O    0.08877   0.68227   0.56678   1.000
    O637    O    0.01758   0.70031   0.61306   1.000
    O638    O    0.58875   0.18228   0.56676   1.000
    O639    O    0.51756   0.20032   0.61306   1.000
    O640    O    0.58876   0.68227   0.56678   1.000
    O641    O    0.51757   0.70031   0.61306   1.000
    O642    O    0.62354   0.12988   0.57956   1.000
    O643    O    0.66371   0.17761   0.59839   1.000
    O644    O    0.12355   0.12988   0.57956   1.000
    O645    O    0.16372   0.17762   0.59839   1.000
    O646    O    0.62354   0.62987   0.57958   1.000
    O647    O    0.66372   0.67761   0.59841   1.000
    O648    O    0.12355   0.62987   0.57959   1.000
    O649    O    0.16373   0.67760   0.59842   1.000
    O650    O    0.64775   0.58289   0.58626   1.000
    O651    O    0.64775   0.08289   0.58626   1.000
    O652    O    0.14776   0.58289   0.58626   1.000
    O653    O    0.14775   0.08290   0.58627   1.000
    O654    O    0.59229   0.92446   0.64173   1.000
    O655    O    0.03261   0.92446   0.64172   1.000
    O656    O    0.59231   0.42447   0.64173   1.000
    O657    O    0.03261   0.42447   0.64172   1.000
    O658    O    0.59902   0.59105   0.63162   1.000
    O659    O    0.09902   0.59105   0.63162   1.000
    O660    O    0.59901   0.09106   0.63163   1.000
    O661    O    0.09902   0.09106   0.63163   1.000
    O662    O    0.70093   0.71716   0.62053   1.000
    O663    O    0.70093   0.21717   0.62053   1.000
    O664    O    0.20094   0.71716   0.62053   1.000
    O665    O    0.20094   0.21717   0.62054   1.000
    O666    O    0.22890   0.67941   0.62421   1.000
    O667    O    0.72889   0.67941   0.62421   1.000
    O668    O    0.72889   0.17942   0.62421   1.000
    O669    O    0.22890   0.17942   0.62422   1.000
    O670    O    0.68113   0.18844   0.67000   1.000
    O671    O    0.68114   0.68844   0.67000   1.000
    O672    O    0.18115   0.68843   0.67000   1.000
    O673    O    0.18114   0.18845   0.67001   1.000
    O674    O    0.46566   0.60106   0.66326   1.000
    O675    O    0.96565   0.60106   0.66326   1.000
    O676    O    0.46566   0.10107   0.66327   1.000
    O677    O    0.96565   0.10107   0.66327   1.000
    O678    O    0.94398   0.71666   0.66621   1.000
    O679    O    0.98937   0.65659   0.67288   1.000
    O680    O    0.03649   0.71244   0.69491   1.000
    O681    O    0.94397   0.21667   0.66622   1.000
    O682    O    0.98936   0.15661   0.67288   1.000
    O683    O    0.03648   0.21246   0.69491   1.000
    O684    O    0.44397   0.21667   0.66622   1.000
    O685    O    0.48936   0.15661   0.67288   1.000
    O686    O    0.53647   0.21246   0.69492   1.000
    O687    O    0.44398   0.71666   0.66621   1.000
    O688    O    0.48937   0.65660   0.67288   1.000
    O689    O    0.53648   0.71244   0.69491   1.000
    O690    O    0.85697   0.72412   0.73580   1.000
    O691    O    0.35698   0.72411   0.73580   1.000
    O692    O    0.85697   0.22413   0.73582   1.000
    O693    O    0.35699   0.22413   0.73582   1.000
    O694    O    0.53603   0.59974   0.67863   1.000
    O695    O    0.57387   0.52533   0.68617   1.000
    O696    O    0.61544   0.60129   0.70171   1.000
    O697    O    0.03603   0.59974   0.67864   1.000
    O698    O    0.07388   0.52533   0.68616   1.000
    O699    O    0.11545   0.60129   0.70171   1.000
    O700    O    0.03603   0.09975   0.67864   1.000
    O701    O    0.07387   0.02533   0.68617   1.000
    O702    O    0.11544   0.10130   0.70172   1.000
    O703    O    0.53602   0.09975   0.67864   1.000
    O704    O    0.57386   0.02533   0.68618   1.000
    O705    O    0.61543   0.10130   0.70172   1.000
    O706    O    0.47756   0.60999   0.71482   1.000
    O707    O    0.47755   0.11001   0.71484   1.000
    O708    O    0.97754   0.60999   0.71484   1.000
    O709    O    0.97754   0.11001   0.71484   1.000
    O710    O    0.10699   0.97412   0.76420   1.000
    O711    O    0.10699   0.47412   0.76420   1.000
    O712    O    0.60699   0.47412   0.76421   1.000
    O713    O    0.60697   0.97412   0.76421   1.000
    O714    O    0.88613   0.86379   0.73918   1.000
    O715    O    0.38614   0.86378   0.73918   1.000
    O716    O    0.88614   0.36380   0.73919   1.000
    O717    O    0.38615   0.36380   0.73919   1.000
    O718    O    0.82312   0.47282   0.74062   1.000
    O719    O    0.32313   0.47282   0.74062   1.000
    O720    O    0.82311   0.97281   0.74062   1.000
    O721    O    0.32312   0.97281   0.74062   1.000
    O722    O    0.62508   0.70523   0.72021   1.000
    O723    O    0.65738   0.65093   0.72126   1.000
    O724    O    0.12509   0.70523   0.72021   1.000
    O725    O    0.15739   0.65093   0.72126   1.000
    O726    O    0.62508   0.20524   0.72022   1.000
    O727    O    0.65738   0.15094   0.72126   1.000
    O728    O    0.12509   0.20525   0.72022   1.000
    O729    O    0.15739   0.15095   0.72126   1.000
    O730    O    0.09160   0.75059   0.72146   1.000
    O731    O    0.59159   0.75059   0.72146   1.000
    O732    O    0.09160   0.25060   0.72146   1.000
    O733    O    0.59159   0.25060   0.72147   1.000
    O734    O    0.18086   0.60368   0.72713   1.000
    O735    O    0.68086   0.60368   0.72713   1.000
    O736    O    0.68085   0.10369   0.72714   1.000
    O737    O    0.18086   0.10369   0.72714   1.000
    O738    O    0.07314   0.22282   0.75941   1.000
    O739    O    0.07315   0.72281   0.75940   1.000
    O740    O    0.57313   0.72281   0.75940   1.000
    O741    O    0.57313   0.22282   0.75941   1.000
    O742    O    0.13616   0.11380   0.76083   1.000
    O743    O    0.13616   0.61379   0.76083   1.000
    O744    O    0.63616   0.61379   0.76083   1.000
    O745    O    0.63615   0.11380   0.76084   1.000
    O746    O    0.72754   0.85999   0.78519   1.000
    O747    O    0.22755   0.85999   0.78519   1.000
    O748    O    0.72755   0.36000   0.78519   1.000
    O749    O    0.22757   0.36000   0.78519   1.000
    O750    O    0.93084   0.85367   0.77288   1.000
    O751    O    0.90737   0.90092   0.77876   1.000
    O752    O    0.86543   0.85128   0.79830   1.000
    O753    O    0.93085   0.35368   0.77288   1.000
    O754    O    0.90738   0.40094   0.77876   1.000
    O755    O    0.86544   0.35129   0.79831   1.000
    O756    O    0.43085   0.85367   0.77288   1.000
    O757    O    0.40738   0.90092   0.77876   1.000
    O758    O    0.36544   0.85128   0.79830   1.000
    O759    O    0.43086   0.35369   0.77288   1.000
    O760    O    0.40739   0.40094   0.77876   1.000
    O761    O    0.36546   0.35129   0.79831   1.000
    O762    O    0.34160   0.50059   0.77856   1.000
    O763    O    0.37509   0.45524   0.77981   1.000
    O764    O    0.28649   0.46245   0.80511   1.000
    O765    O    0.84158   0.00059   0.77857   1.000
    O766    O    0.87507   0.95523   0.77981   1.000
    O767    O    0.78647   0.96244   0.80511   1.000
    O768    O    0.84159   0.50059   0.77857   1.000
    O769    O    0.87508   0.45524   0.77981   1.000
    O770    O    0.78648   0.46245   0.80511   1.000
    O771    O    0.34159   0.00059   0.77857   1.000
    O772    O    0.37508   0.95522   0.77981   1.000
    O773    O    0.28648   0.96244   0.80511   1.000
    O774    O    0.43115   0.93842   0.83002   1.000
    O775    O    0.43116   0.43844   0.83002   1.000
    O776    O    0.93115   0.43844   0.83003   1.000
    O777    O    0.93114   0.93842   0.83003   1.000
    O778    O    0.82387   0.77532   0.81384   1.000
    O779    O    0.84232   0.67446   0.85829   1.000
    O780    O    0.32387   0.77532   0.81384   1.000
    O781    O    0.34233   0.67446   0.85829   1.000
    O782    O    0.82388   0.27534   0.81385   1.000
    O783    O    0.84231   0.17447   0.85830   1.000
    O784    O    0.32389   0.27534   0.81385   1.000
    O785    O    0.34232   0.17447   0.85830   1.000
    O786    O    0.78603   0.84973   0.82138   1.000
    O787    O    0.73936   0.90658   0.82714   1.000
    O788    O    0.71566   0.85105   0.83676   1.000
    O789    O    0.28603   0.84973   0.82138   1.000
    O790    O    0.23937   0.90658   0.82714   1.000
    O791    O    0.21567   0.85105   0.83676   1.000
    O792    O    0.28605   0.34974   0.82139   1.000
    O793    O    0.23939   0.40660   0.82715   1.000
    O794    O    0.21569   0.35106   0.83677   1.000
    O795    O    0.78604   0.34974   0.82139   1.000
    O796    O    0.73938   0.40660   0.82715   1.000
    O797    O    0.71568   0.35106   0.83677   1.000
    O798    O    0.84902   0.84104   0.86840   1.000
    O799    O    0.34903   0.84104   0.86840   1.000
    O800    O    0.34905   0.34105   0.86840   1.000
    O801    O    0.84904   0.34105   0.86840   1.000
    O802    O    0.19399   0.96666   0.83380   1.000
    O803    O    0.19400   0.46666   0.83380   1.000
    O804    O    0.69398   0.96666   0.83380   1.000
    O805    O    0.69399   0.46666   0.83380   1.000
    O806    O    0.26761   0.45031   0.88696   1.000
    O807    O    0.26759   0.95029   0.88697   1.000
    O808    O    0.76759   0.45031   0.88697   1.000
    O809    O    0.76758   0.95029   0.88696   1.000
    O810    O    0.47893   0.42941   0.87581   1.000
    O811    O    0.45097   0.46717   0.87948   1.000
    O812    O    0.41376   0.42761   0.90160   1.000
    O813    O    0.47892   0.92939   0.87537   1.000
    O814    O    0.45096   0.96714   0.87949   1.000
    O815    O    0.41375   0.92758   0.90161   1.000
    O816    O    0.97893   0.42941   0.87582   1.000
    O817    O    0.95096   0.46716   0.87949   1.000
    O818    O    0.91375   0.42760   0.90161   1.000
    O819    O    0.97891   0.92939   0.87582   1.000
    O820    O    0.95095   0.96715   0.87949   1.000
    O821    O    0.91374   0.92759   0.90161   1.000
    O822    O    0.89779   0.33288   0.91377   1.000
    O823    O    0.87358   0.37986   0.92044   1.000
    O824    O    0.84051   0.33576   0.93138   1.000
    O825    O    0.89777   0.83287   0.91376   1.000
    O826    O    0.87356   0.87984   0.92044   1.000
    O827    O    0.84049   0.83574   0.93138   1.000
    O828    O    0.39778   0.83286   0.91375   1.000
    O829    O    0.37357   0.87984   0.92044   1.000
    O830    O    0.34050   0.83574   0.93138   1.000
    O831    O    0.39780   0.33289   0.91377   1.000
    O832    O    0.37359   0.37987   0.92044   1.000
    O833    O    0.34052   0.33577   0.93138   1.000
    O834    O    0.83879   0.43227   0.93325   1.000
    O835    O    0.83878   0.93225   0.93324   1.000
    O836    O    0.33879   0.93225   0.93325   1.000
    O837    O    0.33881   0.43227   0.93324   1.000
    O838    O    0.80331   0.97590   0.94487   1.000
    O839    O    0.77346   0.94026   0.95919   1.000
    O840    O    0.30334   0.47591   0.94486   1.000
    O841    O    0.27349   0.44028   0.95916   1.000
    O842    O    0.80332   0.47591   0.94488   1.000
    O843    O    0.77348   0.44028   0.95920   1.000
    O844    O    0.30332   0.97590   0.94488   1.000
    O845    O    0.27347   0.94026   0.95920   1.000
loop_
    _geom_bond_atom_site_label_1
    _geom_bond_atom_site_label_2
    _geom_bond_distance
    _geom_bond_site_symmetry_2
    _ccdc_geom_bond_type
    C71    O400      0.55286      .   S
    C251   O400      0.55286      .   S
    C70    O401      0.55211      .   S
    C250   O401      0.55211      .   S
    C68    O402      0.55262      .   S
    C248   O402      0.55262      .   S
    C69    O403      0.53006      .   S
    C249   O403      0.53006      .   S
    C65    O404      0.55184  1_565   S
    C248   O404      0.55184      .   S
    C67    O405      0.55165  1_565   S
    C250   O405      0.55165      .   S
    C64    O406      0.54373      .   S
    C249   O406      0.54373      .   S
    C66    O407      0.55161      .   S
    C251   O407      0.55161      .   S
    C82    O408      0.54932      .   S
    C258   O408      0.54932      .   S
    C80    O409      0.54934      .   S
    C256   O409      0.54934      .   S
    C81    O410      0.54929      .   S
    C257   O410      0.54929      .   S
    C83    O411      0.54930      .   S
    C259   O411      0.54930      .   S
    C249   O412      0.74171      .   S
    C341   O412      0.74171      .   S
    C249   O413      0.94381      .   S
    C33    O413      0.94381  1_655   S
    C250   O414      0.73895      .   S
    C342   O414      0.73895      .   S
    C250   O415      0.91476      .   S
    C34    O415      0.91476      .   S
    C248   O416      0.73891      .   S
    C340   O416      0.73891      .   S
    C248   O417      0.91413      .   S
    C32    O417      0.91413  1_655   S
    C251   O418      0.73891      .   S
    C343   O418      0.73891      .   S
    C251   O419      0.91419      .   S
    C35    O419      0.91419      .   S
    C340   O420      0.73205      .   S
    C256   O420      0.73205      .   S
    C340   O421      0.73176      .   S
    C252   O421      0.73176      .   S
    C342   O422      0.73205      .   S
    C258   O422      0.73205      .   S
    C342   O423      0.73145      .   S
    C254   O423      0.73145      .   S
    C341   O424      0.73205      .   S
    C257   O424      0.73205      .   S
    C341   O425      0.73177      .   S
    C253   O425      0.73177      .   S
    C343   O426      0.73204      .   S
    C259   O426      0.73204      .   S
    C343   O427      0.73171      .   S
    C255   O427      0.73171      .   S
    C86    O428      0.54935      .   S
    C258   O428      0.54935      .   S
    C84    O429      0.54935      .   S
    C256   O429      0.54935      .   S
    C85    O430      0.54935      .   S
    C257   O430      0.54935      .   S
    C87    O431      0.54935      .   S
    C259   O431      0.54935      .   S
    C22    O432      1.35001      .   S
    C8     O432      1.35001      .   S
    C23    O433      1.34998      .   S
    C9     O433      1.34998      .   S
    C21    O434      1.32351      .   S
    C11    O434      1.32351      .   S
    C20    O435      1.32349      .   S
    C10    O435      1.32349      .   S
    C258   O436      0.74525      .   S
    C346   O436      0.74525      .   S
    C256   O437      0.74518      .   S
    C344   O437      0.74518      .   S
    C259   O438      0.74518      .   S
    C347   O438      0.74518      .   S
    C257   O439      0.74525      .   S
    C345   O439      0.74525      .   S
    C76    O440      0.54946      .   S
    C252   O440      0.54946      .   S
    C78    O441      0.54937      .   S
    C254   O441      0.54937      .   S
    C77    O442      0.54946      .   S
    C253   O442      0.54946      .   S
    C79    O443      0.54945      .   S
    C255   O443      0.54945      .   S
    C72    O444      0.54854      .   S
    C252   O444      0.54854      .   S
    C74    O445      0.54849      .   S
    C254   O445      0.54849      .   S
    C75    O446      0.54854      .   S
    C255   O446      0.54854      .   S
    C73    O447      0.54855      .   S
    C253   O447      0.54855      .   S
    C254   O448      0.74432      .   S
    C338   O448      0.74432      .   S
    C252   O449      0.74389      .   S
    C336   O449      0.74389      .   S
    C255   O450      0.74392      .   S
    C339   O450      0.74392      .   S
    C253   O451      0.74382      .   S
    C337   O451      0.74382      .   S
    C56    O452      0.55070      .   S
    C244   O452      0.55070      .   S
    C57    O453      0.55075      .   S
    C245   O453      0.55075      .   S
    C58    O454      0.55071      .   S
    C246   O454      0.55071      .   S
    C59    O455      0.55076      .   S
    C247   O455      0.55076      .   S
    C32    O456      0.84699      .   S
    C387   O456      0.84699      .   S
    C32    O457      0.91536      .   S
    C246   O457      0.91536      .   S
    C32    O458      0.91965  1_655   S
    C240   O458      0.91965      .   S
    C34    O459      0.84687      .   S
    C385   O459      0.84687      .   S
    C34    O460      0.91537      .   S
    C244   O460      0.91537      .   S
    C34    O461      0.91963      .   S
    C242   O461      0.91963      .   S
    C35    O462      0.75352      .   S
    C384   O462      0.75352      .   S
    C35    O463      0.91536      .   S
    C245   O463      0.91536      .   S
    C35    O464      0.91963      .   S
    C243   O464      0.91963      .   S
    C33    O465      0.75366      .   S
    C386   O465      0.75366      .   S
    C33    O466      0.91537      .   S
    C247   O466      0.91537      .   S
    C33    O467      0.91959  1_655   S
    C241   O467      0.91959      .   S
    C384   O468      1.26268      .   S
    C1     O468      1.26268      .   S
    C386   O469      1.26268      .   S
    C3     O469      1.26268      .   S
    C344   O470      0.74346      .   S
    C246   O470      0.74346  1_655   S
    C344   O471      1.28648      .   S
    C8     O471      1.28648      .   S
    C344   O472      0.74209      .   S
    C260   O472      0.74209      .   S
    C346   O473      0.74331      .   S
    C244   O473      0.74331      .   S
    C346   O474      1.28657      .   S
    C10    O474      1.28657      .   S
    C346   O475      0.74205      .   S
    C262   O475      0.74205      .   S
    C347   O476      0.74332      .   S
    C245   O476      0.74332      .   S
    C347   O477      1.28658      .   S
    C11    O477      1.28658      .   S
    C347   O478      0.74210      .   S
    C263   O478      0.74210      .   S
    C345   O479      0.74344      .   S
    C247   O479      0.74344  1_655   S
    C345   O480      1.28650      .   S
    C9     O480      1.28650      .   S
    C345   O481      0.74207      .   S
    C261   O481      0.74207      .   S
    C246   O482      0.55140      .   S
    C62    O482      0.55140      .   S
    C244   O483      0.55123      .   S
    C60    O483      0.55123      .   S
    C245   O484      0.55139      .   S
    C61    O484      0.55139      .   S
    C247   O485      0.55140      .   S
    C63    O485      0.55140      .   S
    C8     O486      1.26274      .   S
    C388   O486      1.26274      .   S
    C9     O487      1.26274      .   S
    C389   O487      1.26274      .   S
    C10    O488      1.26274      .   S
    C390   O488      1.26274      .   S
    C11    O489      1.26266      .   S
    C391   O489      1.26266      .   S
    C137   O490      0.54820      .   S
    C285   O490      0.54820      .   S
    C139   O491      0.54819      .   S
    C287   O491      0.54819      .   S
    C136   O492      0.54820      .   S
    C284   O492      0.54820      .   S
    C138   O493      0.54820      .   S
    C286   O493      0.54820      .   S
    C98    O494      0.55070      .   S
    C266   O494      0.55070      .   S
    C99    O495      0.55062      .   S
    C267   O495      0.55062      .   S
    C97    O496      0.55070      .   S
    C265   O496      0.55070      .   S
    C96    O497      0.55070      .   S
    C264   O497      0.55070      .   S
    C338   O498      0.74450      .   S
    C242   O498      0.74450      .   S
    C338   O499      0.74126      .   S
    C262   O499      0.74126      .   S
    C336   O500      0.74450      .   S
    C240   O500      0.74450      .   S
    C336   O501      0.74127      .   S
    C260   O501      0.74127      .   S
    C339   O502      0.74450      .   S
    C243   O502      0.74450      .   S
    C339   O503      0.74126      .   S
    C263   O503      0.74126      .   S
    C337   O504      0.74450      .   S
    C241   O504      0.74450      .   S
    C337   O505      0.74127      .   S
    C261   O505      0.74127      .   S
    C55    O506      0.55156      .   S
    C242   O506      0.55156  1_545   S
    C53    O507      0.55156      .   S
    C240   O507      0.55156  1_545   S
    C54    O508      0.55134      .   S
    C243   O508      0.55134      .   S
    C52    O509      0.55132      .   S
    C241   O509      0.55132      .   S
    C95    O510      0.54833      .   S
    C263   O510      0.54833      .   S
    C94    O511      0.54832      .   S
    C262   O511      0.54832      .   S
    C93    O512      0.54833      .   S
    C261   O512      0.54833      .   S
    C92    O513      0.54832      .   S
    C260   O513      0.54832      .   S
    C240   O514      0.55070      .   S
    C48    O514      0.55070      .   S
    C242   O515      0.55006      .   S
    C50    O515      0.55006      .   S
    C241   O516      0.55078      .   S
    C49    O516      0.55078      .   S
    C243   O517      0.55070      .   S
    C51    O517      0.55070      .   S
    C260   O518      0.54812      .   S
    C88    O518      0.54812      .   S
    C262   O519      0.54820      .   S
    C90    O519      0.54820      .   S
    C261   O520      0.54812      .   S
    C89    O520      0.54812      .   S
    C263   O521      0.54813      .   S
    C91    O521      0.54813      .   S
    C110   O522      0.55148      .   S
    C270   O522      0.55148      .   S
    C111   O523      0.55139      .   S
    C271   O523      0.55139      .   S
    C109   O524      0.55140      .   S
    C269   O524      0.55140      .   S
    C108   O525      0.55078      .   S
    C268   O525      0.55078      .   S
    C285   O526      0.54832      .   S
    C141   O526      0.54832      .   S
    C285   O527      0.74125      .   S
    C349   O527      0.74125      .   S
    C285   O528      0.74206      .   S
    C357   O528      0.74206      .   S
    C287   O529      0.54833      .   S
    C143   O529      0.54833      .   S
    C287   O530      0.74125      .   S
    C351   O530      0.74125      .   S
    C287   O531      0.74208      .   S
    C359   O531      0.74208      .   S
    C286   O532      0.54832      .   S
    C142   O532      0.54832      .   S
    C286   O533      0.74125      .   S
    C350   O533      0.74125      .   S
    C286   O534      0.74206      .   S
    C358   O534      0.74206      .   S
    C284   O535      0.54832      .   S
    C140   O535      0.54832      .   S
    C284   O536      0.74125      .   S
    C348   O536      0.74125      .   S
    C284   O537      0.74206      .   S
    C356   O537      0.74206      .   S
    C267   O538      0.55137      .   S
    C103   O538      0.55137      .   S
    C267   O539      0.74451      .   S
    C351   O539      0.74451      .   S
    C267   O540      0.91970      .   S
    C39    O540      0.91970      .   S
    C265   O541      0.55132      .   S
    C101   O541      0.55132      .   S
    C265   O542      0.74448      .   S
    C349   O542      0.74448      .   S
    C265   O543      0.91965      .   S
    C37    O543      0.91965      .   S
    C264   O544      0.55133      .   S
    C100   O544      0.55133      .   S
    C264   O545      0.74449      .   S
    C348   O545      0.74449      .   S
    C264   O546      0.91964      .   S
    C36    O546      0.91964      .   S
    C266   O547      0.55133      .   S
    C102   O547      0.55133      .   S
    C266   O548      0.74449      .   S
    C350   O548      0.74449      .   S
    C266   O549      0.91964      .   S
    C38    O549      0.91964      .   S
    C348   O550      0.74391      .   S
    C276   O550      0.74391      .   S
    C349   O551      0.74391      .   S
    C277   O551      0.74391      .   S
    C350   O552      0.74391      .   S
    C278   O552      0.74391      .   S
    C351   O553      0.74390      .   S
    C279   O553      0.74390      .   S
    C2     O554      1.28675  1_545   S
    C359   O554      1.28675      .   S
    C2     O555      1.32358      .   S
    C30    O555      1.32358      .   S
    C0     O556      1.28678  1_545   S
    C357   O556      1.28678      .   S
    C0     O557      1.32357      .   S
    C28    O557      1.32357      .   S
    C1     O558      1.28653      .   S
    C356   O558      1.28653      .   S
    C1     O559      1.32356      .   S
    C29    O559      1.32356      .   S
    C3     O560      1.28654      .   S
    C358   O560      1.28654      .   S
    C3     O561      1.32356      .   S
    C31    O561      1.32356      .   S
    C270   O562      0.74339      .   S
    C358   O562      0.74339      .   S
    C270   O563      0.91549      .   S
    C38    O563      0.91549      .   S
    C270   O564      0.55110      .   S
    C106   O564      0.55110      .   S
    C268   O565      0.74339      .   S
    C356   O565      0.74339      .   S
    C268   O566      0.91549      .   S
    C36    O566      0.91549      .   S
    C268   O567      0.55111      .   S
    C104   O567      0.55111      .   S
    C271   O568      0.74331      .   S
    C359   O568      0.74331      .   S
    C271   O569      0.91536      .   S
    C39    O569      0.91536      .   S
    C271   O570      0.55072      .   S
    C107   O570      0.55072      .   S
    C269   O571      0.74331      .   S
    C357   O571      0.74331      .   S
    C269   O572      0.91536      .   S
    C37    O572      0.91536      .   S
    C269   O573      0.55071      .   S
    C105   O573      0.55071      .   S
    C359   O574      0.74518      .   S
    C283   O574      0.74518      .   S
    C357   O575      0.74215      .   S
    C281   O575      0.74215      .   S
    C356   O576      0.74520      .   S
    C280   O576      0.74520      .   S
    C358   O577      0.74519      .   S
    C282   O577      0.74519      .   S
    C391   O578      0.75352      .   S
    C39    O578      0.75352      .   S
    C390   O579      0.75353      .   S
    C38    O579      0.75353      .   S
    C389   O580      0.75353      .   S
    C37    O580      0.75353      .   S
    C388   O581      0.75353      .   S
    C36    O581      0.75353      .   S
    C39    O582      0.91412      .   S
    C275   O582      0.91412      .   S
    C37    O583      0.91404      .   S
    C273   O583      0.91404      .   S
    C38    O584      0.91419      .   S
    C274   O584      0.91419      .   S
    C36    O585      0.91419      .   S
    C272   O585      0.91419      .   S
    C276   O586      0.54854      .   S
    C122   O586      0.54854      .   S
    C276   O587      0.54946      .   S
    C124   O587      0.54946      .   S
    C276   O588      0.73177      .   S
    C352   O588      0.73177      .   S
    C277   O589      0.54854      .   S
    C123   O589      0.54854      .   S
    C277   O590      0.54940      .   S
    C125   O590      0.54940      .   S
    C277   O591      0.73175      .   S
    C353   O591      0.73175      .   S
    C278   O592      0.54867      .   S
    C120   O592      0.54867  1_455   S
    C278   O593      0.54945      .   S
    C126   O593      0.54945      .   S
    C278   O594      0.73140      .   S
    C354   O594      0.73140      .   S
    C279   O595      0.54867      .   S
    C121   O595      0.54867  1_455   S
    C279   O596      0.54946      .   S
    C127   O596      0.54946      .   S
    C279   O597      0.73172      .   S
    C355   O597      0.73172      .   S
    C281   O598      0.54968      .   S
    C133   O598      0.54968      .   S
    C281   O599      0.73280      .   S
    C353   O599      0.73280      .   S
    C281   O600      0.55136      .   S
    C129   O600      0.55136      .   S
    C283   O601      0.54934      .   S
    C135   O601      0.54934      .   S
    C283   O602      0.73204      .   S
    C355   O602      0.73204      .   S
    C283   O603      0.54930      .   S
    C131   O603      0.54930      .   S
    C280   O604      0.54935      .   S
    C132   O604      0.54935      .   S
    C280   O605      0.73205      .   S
    C352   O605      0.73205      .   S
    C280   O606      0.54930      .   S
    C128   O606      0.54930      .   S
    C282   O607      0.54935      .   S
    C134   O607      0.54935      .   S
    C282   O608      0.73192      .   S
    C354   O608      0.73192      .   S
    C282   O609      0.54929      .   S
    C130   O609      0.54929      .   S
    C354   O610      0.73895      .   S
    C274   O610      0.73895      .   S
    C355   O611      0.73891      .   S
    C275   O611      0.73891      .   S
    C353   O612      0.73890      .   S
    C273   O612      0.73890      .   S
    C352   O613      0.73891      .   S
    C272   O613      0.73891      .   S
    C273   O614      0.55165      .   S
    C113   O614      0.55165      .   S
    C273   O615      0.55269      .   S
    C117   O615      0.55269      .   S
    C275   O616      0.55162      .   S
    C115   O616      0.55162      .   S
    C275   O617      0.55262      .   S
    C119   O617      0.55262      .   S
    C272   O618      0.55161      .   S
    C112   O618      0.55161      .   S
    C272   O619      0.55255      .   S
    C116   O619      0.55255      .   S
    C274   O620      0.55161      .   S
    C114   O620      0.55161      .   S
    C274   O621      0.55255      .   S
    C118   O621      0.55255      .   S
    C213   O622      0.55261      .   S
    C321   O622      0.55261      .   S
    C212   O623      0.55261      .   S
    C320   O623      0.55261      .   S
    C214   O624      0.55262      .   S
    C322   O624      0.55262      .   S
    C215   O625      0.55261      .   S
    C323   O625      0.55261      .   S
    C209   O626      0.55164      .   S
    C321   O626      0.55164      .   S
    C211   O627      0.55164      .   S
    C323   O627      0.55164      .   S
    C208   O628      0.55162      .   S
    C320   O628      0.55162      .   S
    C210   O629      0.55163      .   S
    C322   O629      0.55163      .   S
    C227   O630      0.54935      .   S
    C331   O630      0.54935      .   S
    C224   O631      0.54933      .   S
    C328   O631      0.54933      .   S
    C225   O632      0.54930      .   S
    C329   O632      0.54930      .   S
    C226   O633      0.54931      .   S
    C330   O633      0.54931      .   S
    C320   O634      0.73887      .   S
    C376   O634      0.73887      .   S
    C320   O635      0.91413      .   S
    C44    O635      0.91413  1_655   S
    C321   O636      0.73890      .   S
    C377   O636      0.73890      .   S
    C321   O637      0.91412      .   S
    C45    O637      0.91412  1_655   S
    C322   O638      0.73887      .   S
    C378   O638      0.73887      .   S
    C322   O639      0.91411      .   S
    C46    O639      0.91411      .   S
    C323   O640      0.73890      .   S
    C379   O640      0.73890      .   S
    C323   O641      0.91412      .   S
    C47    O641      0.91412      .   S
    C378   O642      0.73216      .   S
    C330   O642      0.73216      .   S
    C378   O643      0.73208      .   S
    C326   O643      0.73208      .   S
    C376   O644      0.73215      .   S
    C328   O644      0.73215      .   S
    C376   O645      0.73205      .   S
    C324   O645      0.73205      .   S
    C379   O646      0.73206      .   S
    C331   O646      0.73206      .   S
    C379   O647      0.73176      .   S
    C327   O647      0.73176      .   S
    C377   O648      0.73203      .   S
    C329   O648      0.73203      .   S
    C377   O649      0.73172      .   S
    C325   O649      0.73172      .   S
    C231   O650      0.54935      .   S
    C331   O650      0.54935      .   S
    C230   O651      0.54934      .   S
    C330   O651      0.54934      .   S
    C229   O652      0.54934      .   S
    C329   O652      0.54934      .   S
    C228   O653      0.54934      .   S
    C328   O653      0.54934      .   S
    C13    O654      1.32362      .   S
    C19    O654      1.32362      .   S
    C15    O655      1.34978      .   S
    C17    O655      1.34978      .   S
    C12    O656      1.32355      .   S
    C18    O656      1.32355      .   S
    C14    O657      1.34971      .   S
    C16    O657      1.34971      .   S
    C331   O658      0.74520      .   S
    C383   O658      0.74520      .   S
    C329   O659      0.74520      .   S
    C381   O659      0.74520      .   S
    C330   O660      0.74527      .   S
    C382   O660      0.74527      .   S
    C328   O661      0.74521      .   S
    C380   O661      0.74521      .   S
    C223   O662      0.54945      .   S
    C327   O662      0.54945      .   S
    C222   O663      0.54946      .   S
    C326   O663      0.54946      .   S
    C221   O664      0.54945      .   S
    C325   O664      0.54945      .   S
    C220   O665      0.54946      .   S
    C324   O665      0.54946      .   S
    C217   O666      0.54854      .   S
    C325   O666      0.54854      .   S
    C219   O667      0.54854      .   S
    C327   O667      0.54854      .   S
    C218   O668      0.54853      .   S
    C326   O668      0.54853      .   S
    C216   O669      0.54854      .   S
    C324   O669      0.54854      .   S
    C326   O670      0.74393      .   S
    C374   O670      0.74393      .   S
    C327   O671      0.74391      .   S
    C375   O671      0.74391      .   S
    C325   O672      0.74391      .   S
    C373   O672      0.74391      .   S
    C324   O673      0.74389      .   S
    C372   O673      0.74389      .   S
    C201   O674      0.55070      .   S
    C317   O674      0.55070      .   S
    C203   O675      0.55075      .   S
    C319   O675      0.55075      .   S
    C200   O676      0.55069      .   S
    C316   O676      0.55069      .   S
    C202   O677      0.55070      .   S
    C318   O677      0.55070      .   S
    C45    O678      0.75364      .   S
    C399   O678      0.75364      .   S
    C45    O679      0.91537      .   S
    C319   O679      0.91537      .   S
    C45    O680      0.91962  1_655   S
    C313   O680      0.91962      .   S
    C44    O681      0.75365      .   S
    C398   O681      0.75365      .   S
    C44    O682      0.91537      .   S
    C318   O682      0.91537      .   S
    C44    O683      0.91962  1_655   S
    C312   O683      0.91962      .   S
    C46    O684      0.75353      .   S
    C396   O684      0.75353      .   S
    C46    O685      0.91536      .   S
    C316   O685      0.91536      .   S
    C46    O686      0.91966      .   S
    C314   O686      0.91966      .   S
    C47    O687      0.75350      .   S
    C397   O687      0.75350      .   S
    C47    O688      0.91536      .   S
    C317   O688      0.91536      .   S
    C47    O689      0.91961      .   S
    C315   O689      0.91961      .   S
    C399   O690      1.26290      .   S
    C27    O690      1.26290      .   S
    C397   O691      1.26292      .   S
    C25    O691      1.26292      .   S
    C398   O692      1.26271      .   S
    C26    O692      1.26271      .   S
    C396   O693      1.26271      .   S
    C24    O693      1.26271      .   S
    C383   O694      0.74331      .   S
    C317   O694      0.74331      .   S
    C383   O695      1.28648      .   S
    C18    O695      1.28648      .   S
    C383   O696      0.74206      .   S
    C335   O696      0.74206      .   S
    C381   O697      0.74345      .   S
    C319   O697      0.74345  1_655   S
    C381   O698      1.28647      .   S
    C16    O698      1.28647      .   S
    C381   O699      0.74206      .   S
    C333   O699      0.74206      .   S
    C380   O700      0.74345      .   S
    C318   O700      0.74345  1_655   S
    C380   O701      1.28665      .   S
    C17    O701      1.28665  1_565   S
    C380   O702      0.74204      .   S
    C332   O702      0.74204      .   S
    C382   O703      0.74331      .   S
    C316   O703      0.74331      .   S
    C382   O704      1.28678      .   S
    C19    O704      1.28678  1_565   S
    C382   O705      0.74205      .   S
    C334   O705      0.74205      .   S
    C317   O706      0.55116      .   S
    C205   O706      0.55116      .   S
    C316   O707      0.55139      .   S
    C204   O707      0.55139      .   S
    C319   O708      0.55139      .   S
    C207   O708      0.55139      .   S
    C318   O709      0.55139      .   S
    C206   O709      0.55139      .   S
    C17    O710      1.26289      .   S
    C392   O710      1.26289      .   S
    C16    O711      1.26286      .   S
    C393   O711      1.26286      .   S
    C18    O712      1.26270      .   S
    C395   O712      1.26270      .   S
    C19    O713      1.26268      .   S
    C394   O713      1.26268      .   S
    C187   O714      0.54821      .   S
    C311   O714      0.54821      .   S
    C185   O715      0.54821      .   S
    C309   O715      0.54821      .   S
    C186   O716      0.54814      .   S
    C310   O716      0.54814      .   S
    C184   O717      0.54814      .   S
    C308   O717      0.54814      .   S
    C146   O718      0.55079      .   S
    C290   O718      0.55079      .   S
    C144   O719      0.55079      .   S
    C288   O719      0.55079      .   S
    C147   O720      0.55071      .   S
    C291   O720      0.55071      .   S
    C145   O721      0.55071      .   S
    C289   O721      0.55071      .   S
    C375   O722      0.74449      .   S
    C315   O722      0.74449      .   S
    C375   O723      0.74126      .   S
    C335   O723      0.74126      .   S
    C373   O724      0.74449      .   S
    C313   O724      0.74449      .   S
    C373   O725      0.74125      .   S
    C333   O725      0.74125      .   S
    C374   O726      0.74450      .   S
    C314   O726      0.74450      .   S
    C374   O727      0.74126      .   S
    C334   O727      0.74126      .   S
    C372   O728      0.74449      .   S
    C312   O728      0.74449      .   S
    C372   O729      0.74125      .   S
    C332   O729      0.74125      .   S
    C197   O730      0.55134      .   S
    C313   O730      0.55134      .   S
    C199   O731      0.55135      .   S
    C315   O731      0.55135      .   S
    C196   O732      0.55133      .   S
    C312   O732      0.55133      .   S
    C198   O733      0.55134      .   S
    C314   O733      0.55134      .   S
    C237   O734      0.54832      .   S
    C333   O734      0.54832      .   S
    C239   O735      0.54832      .   S
    C335   O735      0.54832      .   S
    C238   O736      0.54832      .   S
    C334   O736      0.54832      .   S
    C236   O737      0.54832      .   S
    C332   O737      0.54832      .   S
    C312   O738      0.55078      .   S
    C192   O738      0.55078      .   S
    C313   O739      0.55070      .   S
    C193   O739      0.55070      .   S
    C315   O740      0.55071      .   S
    C195   O740      0.55071      .   S
    C314   O741      0.55071      .   S
    C194   O741      0.55071      .   S
    C332   O742      0.54820      .   S
    C232   O742      0.54820      .   S
    C333   O743      0.54820      .   S
    C233   O743      0.54820      .   S
    C335   O744      0.54820      .   S
    C235   O744      0.54820      .   S
    C334   O745      0.54821      .   S
    C234   O745      0.54821      .   S
    C159   O746      0.55140      .   S
    C295   O746      0.55140      .   S
    C157   O747      0.55139      .   S
    C293   O747      0.55139      .   S
    C158   O748      0.55140      .   S
    C294   O748      0.55140      .   S
    C156   O749      0.55141      .   S
    C292   O749      0.55141      .   S
    C311   O750      0.54832      .   S
    C191   O750      0.54832      .   S
    C311   O751      0.74125      .   S
    C363   O751      0.74125      .   S
    C311   O752      0.74206      .   S
    C371   O752      0.74206      .   S
    C310   O753      0.54832      .   S
    C190   O753      0.54832      .   S
    C310   O754      0.74125      .   S
    C362   O754      0.74125      .   S
    C310   O755      0.74208      .   S
    C370   O755      0.74208      .   S
    C309   O756      0.54832      .   S
    C189   O756      0.54832      .   S
    C309   O757      0.74123      .   S
    C361   O757      0.74123      .   S
    C309   O758      0.74204      .   S
    C369   O758      0.74204      .   S
    C308   O759      0.54833      .   S
    C188   O759      0.54833      .   S
    C308   O760      0.74127      .   S
    C360   O760      0.74127      .   S
    C308   O761      0.74209      .   S
    C368   O761      0.74209      .   S
    C288   O762      0.55132      .   S
    C149   O762      0.55132      .   S
    C288   O763      0.74450      .   S
    C360   O763      0.74450      .   S
    C288   O764      0.91961      .   S
    C40    O764      0.91961      .   S
    C291   O765      0.55156  1_565   S
    C150   O765      0.55156      .   S
    C291   O766      0.74450      .   S
    C363   O766      0.74450      .   S
    C291   O767      0.91962      .   S
    C43    O767      0.91962      .   S
    C290   O768      0.55133      .   S
    C151   O768      0.55133      .   S
    C290   O769      0.74449      .   S
    C362   O769      0.74449      .   S
    C290   O770      0.91961      .   S
    C42    O770      0.91961      .   S
    C289   O771      0.55156  1_565   S
    C148   O771      0.55156      .   S
    C289   O772      0.74448      .   S
    C361   O772      0.74448      .   S
    C289   O773      0.91962      .   S
    C41    O773      0.91962      .   S
    C361   O774      0.74401      .   S
    C301   O774      0.74401      .   S
    C360   O775      0.74384      .   S
    C300   O775      0.74384      .   S
    C362   O776      0.74394      .   S
    C302   O776      0.74394      .   S
    C363   O777      0.74392      .   S
    C303   O777      0.74392      .   S
    C27    O778      1.28649      .   S
    C371   O778      1.28649      .   S
    C27    O779      1.32359      .   S
    C7     O779      1.32359      .   S
    C25    O780      1.28655      .   S
    C369   O780      1.28655      .   S
    C25    O781      1.32358      .   S
    C5     O781      1.32358      .   S
    C26    O782      1.28655      .   S
    C370   O782      1.28655      .   S
    C26    O783      1.32355      .   S
    C6     O783      1.32355      .   S
    C24    O784      1.28650      .   S
    C368   O784      1.28650      .   S
    C24    O785      1.32356      .   S
    C4     O785      1.32356      .   S
    C295   O786      0.74331      .   S
    C371   O786      0.74331      .   S
    C295   O787      0.91537      .   S
    C43    O787      0.91537      .   S
    C295   O788      0.55075      .   S
    C155   O788      0.55075      .   S
    C293   O789      0.74331      .   S
    C369   O789      0.74331      .   S
    C293   O790      0.91537      .   S
    C41    O790      0.91537      .   S
    C293   O791      0.55074      .   S
    C153   O791      0.55074      .   S
    C292   O792      0.74332      .   S
    C368   O792      0.74332      .   S
    C292   O793      0.91536      .   S
    C40    O793      0.91536      .   S
    C292   O794      0.55073      .   S
    C152   O794      0.55073      .   S
    C294   O795      0.74331      .   S
    C370   O795      0.74331      .   S
    C294   O796      0.91536      .   S
    C42    O796      0.91536      .   S
    C294   O797      0.55072      .   S
    C154   O797      0.55072      .   S
    C371   O798      0.74526      .   S
    C307   O798      0.74526      .   S
    C369   O799      0.74526      .   S
    C305   O799      0.74526      .   S
    C368   O800      0.74520      .   S
    C304   O800      0.74520      .   S
    C370   O801      0.74520      .   S
    C306   O801      0.74520      .   S
    C392   O802      0.75364      .   S
    C41    O802      0.75364      .   S
    C393   O803      0.75353      .   S
    C40    O803      0.75353      .   S
    C394   O804      0.75364      .   S
    C43    O804      0.75364      .   S
    C395   O805      0.75352      .   S
    C42    O805      0.75352      .   S
    C40    O806      0.91414      .   S
    C296   O806      0.91414      .   S
    C41    O807      0.91419      .   S
    C297   O807      0.91419      .   S
    C42    O808      0.91419      .   S
    C298   O808      0.91419      .   S
    C43    O809      0.91413      .   S
    C299   O809      0.91413      .   S
    C300   O810      0.54854      .   S
    C170   O810      0.54854      .   S
    C300   O811      0.54945      .   S
    C172   O811      0.54945      .   S
    C300   O812      0.73175      .   S
    C364   O812      0.73175      .   S
    C301   O813      0.54790      .   S
    C171   O813      0.54790      .   S
    C301   O814      0.54945      .   S
    C173   O814      0.54945      .   S
    C301   O815      0.73176      .   S
    C365   O815      0.73176      .   S
    C302   O816      0.54867      .   S
    C168   O816      0.54867  1_455   S
    C302   O817      0.54946      .   S
    C174   O817      0.54946      .   S
    C302   O818      0.73174      .   S
    C366   O818      0.73174      .   S
    C303   O819      0.54867      .   S
    C169   O819      0.54867  1_455   S
    C303   O820      0.54945      .   S
    C175   O820      0.54945      .   S
    C303   O821      0.73172      .   S
    C367   O821      0.73172      .   S
    C306   O822      0.54935      .   S
    C182   O822      0.54935      .   S
    C306   O823      0.73206      .   S
    C366   O823      0.73206      .   S
    C306   O824      0.54934      .   S
    C178   O824      0.54934      .   S
    C307   O825      0.54933      .   S
    C183   O825      0.54933      .   S
    C307   O826      0.73203      .   S
    C367   O826      0.73203      .   S
    C307   O827      0.54929      .   S
    C179   O827      0.54929      .   S
    C305   O828      0.54933      .   S
    C181   O828      0.54933      .   S
    C305   O829      0.73205      .   S
    C365   O829      0.73205      .   S
    C305   O830      0.54930      .   S
    C177   O830      0.54930      .   S
    C304   O831      0.54935      .   S
    C180   O831      0.54935      .   S
    C304   O832      0.73204      .   S
    C364   O832      0.73204      .   S
    C304   O833      0.54933      .   S
    C176   O833      0.54933      .   S
    C366   O834      0.73891      .   S
    C298   O834      0.73891      .   S
    C367   O835      0.73891      .   S
    C299   O835      0.73891      .   S
    C365   O836      0.73891      .   S
    C297   O836      0.73891      .   S
    C364   O837      0.73891      .   S
    C296   O837      0.73891      .   S
    C299   O838      0.55185      .   S
    C162   O838      0.55185  1_545   S
    C299   O839      0.55260      .   S
    C167   O839      0.55260      .   S
    C296   O840      0.55157      .   S
    C161   O840      0.55157      .   S
    C296   O841      0.55219      .   S
    C164   O841      0.55219      .   S
    C298   O842      0.55162      .   S
    C163   O842      0.55162      .   S
    C298   O843      0.55260      .   S
    C166   O843      0.55260      .   S
    C297   O844      0.55184      .   S
    C160   O844      0.55184  1_545   S
    C297   O845      0.55255      .   S
    C165   O845      0.55255      .   S
