# CIF file generated by openbabel 2.4.90, see http://openbabel.sf.net
data_I
_chemical_name_common ''
_cell_length_a 14.647
_cell_length_b 20.817
_cell_length_c 16.596
_cell_angle_alpha 89.997
_cell_angle_beta 90.006
_cell_angle_gamma 90.004
_space_group_name_H-M_alt 'P 1'
_space_group_name_Hall 'P 1'
loop_
    _symmetry_equiv_pos_as_xyz
    x,y,z
loop_
    _atom_site_label
    _atom_site_type_symbol
    _atom_site_fract_x
    _atom_site_fract_y
    _atom_site_fract_z
    _atom_site_occupancy
    Zr0     Zr   0.31523   0.03535   0.30128   1.000
    Zr1     Zr   0.31524   0.53533   0.30129   1.000
    Zr2     Zr   0.81522   0.03535   0.30128   1.000
    Zr3     Zr   0.81523   0.53533   0.30129   1.000
    Zr4     Zr   0.36942   0.13428   0.91529   1.000
    Zr5     Zr   0.36945   0.63428   0.91528   1.000
    Zr6     Zr   0.86941   0.13428   0.91529   1.000
    Zr7     Zr   0.86944   0.63428   0.91528   1.000
    Zr8     Zr   0.06524   0.28534   0.19870   1.000
    Zr9     Zr   0.06523   0.78533   0.19870   1.000
    Zr10    Zr   0.56523   0.28534   0.19870   1.000
    Zr11    Zr   0.56522   0.78533   0.19871   1.000
    Zr12    Zr   0.61940   0.38429   0.58475   1.000
    Zr13    Zr   0.61938   0.88428   0.58474   1.000
    Zr14    Zr   0.00000   0.38429   0.58475   1.000
    Zr15    Zr   0.00000   0.88428   0.58474   1.000
    Zr16    Zr   0.06522   0.46465   0.69870   1.000
    Zr17    Zr   0.06521   0.96464   0.69870   1.000
    Zr18    Zr   0.56521   0.46465   0.69872   1.000
    Zr19    Zr   0.56520   0.96464   0.69873   1.000
    Zr20    Zr   0.61938   0.36572   0.08472   1.000
    Zr21    Zr   0.61935   0.86570   0.08472   1.000
    Zr22    Zr   0.00000   0.36572   0.08472   1.000
    Zr23    Zr   0.00000   0.86570   0.08472   1.000
    Zr24    Zr   0.31523   0.21465   0.80131   1.000
    Zr25    Zr   0.31521   0.71464   0.80130   1.000
    Zr26    Zr   0.81521   0.21465   0.80131   1.000
    Zr27    Zr   0.81520   0.71464   0.80130   1.000
    Zr28    Zr   0.36944   0.11570   0.41527   1.000
    Zr29    Zr   0.36941   0.61570   0.41528   1.000
    Zr30    Zr   0.86943   0.11570   0.41527   1.000
    Zr31    Zr   0.86940   0.61570   0.41528   1.000
    O32     O    0.03262   0.32553   0.14171   1.000
    O33     O    0.03261   0.82552   0.14171   1.000
    O34     O    0.59229   0.82552   0.14172   1.000
    O35     O    0.59230   0.32553   0.14171   1.000
    O36     O    0.84233   0.07552   0.35827   1.000
    O37     O    0.34234   0.07552   0.35827   1.000
    O38     O    0.34233   0.57551   0.35828   1.000
    O39     O    0.84232   0.57551   0.35828   1.000
    O40     O    0.59229   0.92446   0.64173   1.000
    O41     O    0.03261   0.92446   0.64172   1.000
    O42     O    0.59231   0.42447   0.64173   1.000
    O43     O    0.03261   0.42447   0.64172   1.000
    O44     O    0.84232   0.67446   0.85829   1.000
    O45     O    0.34233   0.67446   0.85829   1.000
    O46     O    0.84231   0.17447   0.85830   1.000
    O47     O    0.34232   0.17447   0.85830   1.000
    N48     N    0.33826   0.33949   0.34561   1.000
    O49     O    0.22263   0.30768   0.30490   1.000
    O50     O    0.33108   0.40707   0.32972   1.000
    N51     N    0.08824   0.08879   0.15439   1.000
    O52     O    0.08107   0.15673   0.17028   1.000
    N53     N    0.83825   0.33949   0.34560   1.000
    O54     O    0.83108   0.40707   0.32972   1.000
    O55     O    0.72262   0.30768   0.30490   1.000
    N56     N    0.83824   0.41049   0.84562   1.000
    O57     O    0.72261   0.44231   0.80491   1.000
    O58     O    0.83106   0.34291   0.82974   1.000
    N59     N    0.33825   0.41049   0.84561   1.000
    O60     O    0.22262   0.44231   0.80491   1.000
    O61     O    0.33107   0.34291   0.82973   1.000
    N62     N    0.08822   0.16050   0.65441   1.000
    O63     O    0.97260   0.19231   0.69512   1.000
    O64     O    0.08105   0.09291   0.67029   1.000
    N65     N    0.33823   0.91047   0.84558   1.000
    O66     O    0.33105   0.84290   0.82971   1.000
    O67     O    0.22261   0.94230   0.80489   1.000
    N68     N    0.08823   0.58949   0.15423   1.000
    O69     O    0.08106   0.65707   0.17020   1.000
    O70     O    0.97261   0.55767   0.19501   1.000
    N71     N    0.58821   0.16050   0.65441   1.000
    O72     O    0.58104   0.09291   0.67030   1.000
    O73     O    0.47260   0.19231   0.69512   1.000
    N74     N    0.83822   0.91048   0.84562   1.000
    O75     O    0.83104   0.84290   0.82973   1.000
    O76     O    0.72260   0.94230   0.80492   1.000
    N77     N    0.33824   0.83949   0.34559   1.000
    O78     O    0.33107   0.90707   0.32971   1.000
    O79     O    0.22262   0.80767   0.30489   1.000
    N80     N    0.58823   0.58949   0.15440   1.000
    O81     O    0.47261   0.55767   0.19510   1.000
    O82     O    0.58105   0.65707   0.17028   1.000
    N83     N    0.08822   0.66049   0.65441   1.000
    O84     O    0.97260   0.69230   0.69511   1.000
    O85     O    0.08105   0.59291   0.67029   1.000
    N86     N    0.83823   0.83949   0.34561   1.000
    O87     O    0.72261   0.80767   0.30490   1.000
    O88     O    0.83106   0.90707   0.32972   1.000
    N89     N    0.58822   0.66049   0.65441   1.000
    O90     O    0.47260   0.69230   0.69510   1.000
    O91     O    0.58105   0.59291   0.67029   1.000
    N92     N    0.58823   0.08879   0.15438   1.000
    O93     O    0.58106   0.15673   0.17027   1.000
loop_
    _geom_bond_atom_site_label_1
    _geom_bond_atom_site_label_2
    _geom_bond_distance
    _geom_bond_site_symmetry_2
    _ccdc_geom_bond_type
    Zr22   O32       1.35001      .   S
    Zr8    O32       1.35001      .   S
    Zr23   O33       1.34998      .   S
    Zr9    O33       1.34998      .   S
    Zr21   O34       1.32351      .   S
    Zr11   O34       1.32351      .   S
    Zr20   O35       1.32349      .   S
    Zr10   O35       1.32349      .   S
    Zr2    O36       1.32358      .   S
    Zr30   O36       1.32358      .   S
    Zr0    O37       1.32357      .   S
    Zr28   O37       1.32357      .   S
    Zr1    O38       1.32356      .   S
    Zr29   O38       1.32356      .   S
    Zr3    O39       1.32356      .   S
    Zr31   O39       1.32356      .   S
    Zr13   O40       1.32362      .   S
    Zr19   O40       1.32362      .   S
    Zr15   O41       1.34978      .   S
    Zr17   O41       1.34978      .   S
    Zr12   O42       1.32355      .   S
    Zr18   O42       1.32355      .   S
    Zr14   O43       1.34971      .   S
    Zr16   O43       1.34971      .   S
    Zr27   O44       1.32359      .   S
    Zr7    O44       1.32359      .   S
    Zr25   O45       1.32358      .   S
    Zr5    O45       1.32358      .   S
    Zr26   O46       1.32355      .   S
    Zr6    O46       1.32355      .   S
    Zr24   O47       1.32356      .   S
    Zr4    O47       1.32356      .   S
    N48    O49       1.93982      .   S
    Zr8    O49       2.93876      .   S
    N48    O50       1.43511      .   S
    Zr1    O50       2.72125      .   S
    N51    O52       1.44241      .   S
    Zr8    O52       2.72851      .   S
    N53    O54       1.43509      .   S
    Zr3    O54       2.72125      .   S
    N53    O55       1.93980      .   S
    Zr10   O55       2.93873      .   S
    N56    O57       1.93985      .   S
    Zr18   O57       2.93881      .   S
    N56    O58       1.43508      .   S
    Zr26   O58       2.72125      .   S
    N59    O60       1.93987      .   S
    Zr16   O60       2.93894      .   S
    N59    O61       1.43509      .   S
    Zr24   O61       2.72121      .   S
    N62    O63       1.93996  1_455   S
    Zr26   O63       2.93892      .   S
    N62    O64       1.43522      .   S
    Zr17   O64       2.72148  1_565   S
    N65    O66       1.43505      .   S
    Zr25   O66       2.72122      .   S
    N65    O67       1.93977      .   S
    Zr17   O67       2.93870      .   S
    N68    O69       1.43538      .   S
    Zr9    O69       2.72148      .   S
    N68    O70       1.94038  1_455   S
    Zr3    O70       2.93958      .   S
    N71    O72       1.43520      .   S
    Zr19   O72       2.72160  1_565   S
    N71    O73       1.93984      .   S
    Zr24   O73       2.93882      .   S
    N74    O75       1.43512      .   S
    Zr27   O75       2.72123      .   S
    N74    O76       1.93986      .   S
    Zr19   O76       2.93870      .   S
    N77    O78       1.43518      .   S
    Zr0    O78       2.72158  1_545   S
    N77    O79       1.93975      .   S
    Zr9    O79       2.93864      .   S
    N80    O81       1.93976      .   S
    Zr1    O81       2.93864      .   S
    N80    O82       1.43509      .   S
    Zr11   O82       2.72128      .   S
    N83    O84       1.93995  1_455   S
    Zr27   O84       2.93905      .   S
    N83    O85       1.43508      .   S
    Zr16   O85       2.72117      .   S
    N86    O87       1.93979      .   S
    Zr11   O87       2.93865      .   S
    N86    O88       1.43523      .   S
    Zr2    O88       2.72159  1_545   S
    N89    O90       1.93986      .   S
    Zr25   O90       2.93899      .   S
    N89    O91       1.43510      .   S
    Zr18   O91       2.72120      .   S
    N92    O93       1.44238      .   S
    Zr10   O93       2.72857      .   S
