# CIF file generated by openbabel 2.4.90, see http://openbabel.sf.net
data_I
_chemical_name_common ''
_cell_length_a 15.41
_cell_length_b 21.433
_cell_length_c 21.434
_cell_angle_alpha 119.984
_cell_angle_beta 89.984
_cell_angle_gamma 90.008
_space_group_name_H-M_alt 'P 1'
_space_group_name_Hall 'P 1'
loop_
    _symmetry_equiv_pos_as_xyz
    x,y,z
loop_
    _atom_site_label
    _atom_site_type_symbol
    _atom_site_fract_x
    _atom_site_fract_y
    _atom_site_fract_z
    _atom_site_occupancy
    C0      C    0.00031   0.21801   0.54070   1.000
    C1      C    0.50032   0.21801   0.54077   1.000
    C2      C    0.33361   0.32286   0.78190   1.000
    C3      C    0.83362   0.32286   0.78191   1.000
    C4      C    0.16688   0.45912   0.67705   1.000
    C5      C    0.66690   0.45912   0.67705   1.000
    C6      C    0.00025   0.78197   0.45915   1.000
    C7      C    0.50027   0.78198   0.45915   1.000
    C8      C    0.33365   0.67715   0.21803   1.000
    C9      C    0.83366   0.67716   0.21804   1.000
    C10     C    0.16689   0.54087   0.32290   1.000
    C11     C    0.66691   0.54087   0.32290   1.000
    C12     C    0.33310   0.67710   0.45915   1.000
    C13     C    0.83311   0.67710   0.45915   1.000
    C14     C    0.49973   0.54082   0.21802   1.000
    C15     C    0.99974   0.54082   0.21802   1.000
    C16     C    0.16641   0.78195   0.32287   1.000
    C17     C    0.66642   0.78195   0.32287   1.000
    C18     C    0.33315   0.32293   0.54087   1.000
    C19     C    0.83316   0.32293   0.54087   1.000
    C20     C    0.49971   0.45919   0.78196   1.000
    C21     C    0.99972   0.45919   0.78195   1.000
    C22     C    0.16638   0.21804   0.67712   1.000
    C23     C    0.66639   0.21804   0.67710   1.000
    O24     O    0.45960   0.23793   0.59990   1.000
    O25     O    0.95961   0.23792   0.59994   1.000
    O26     O    0.07352   0.24158   0.53430   1.000
    O27     O    0.57354   0.24158   0.53430   1.000
    O28     O    0.29291   0.36214   0.76204   1.000
    O29     O    0.79292   0.36214   0.76200   1.000
    O30     O    0.40678   0.29278   0.75828   1.000
    O31     O    0.90680   0.29278   0.75828   1.000
    O32     O    0.12621   0.39998   0.63772   1.000
    O33     O    0.62622   0.39998   0.63772   1.000
    O34     O    0.24005   0.46556   0.70712   1.000
    O35     O    0.74006   0.46556   0.70712   1.000
    O36     O    0.45957   0.76209   0.40000   1.000
    O37     O    0.95958   0.76209   0.40000   1.000
    O38     O    0.07343   0.75836   0.46561   1.000
    O39     O    0.57344   0.75836   0.46561   1.000
    O40     O    0.29294   0.63789   0.23794   1.000
    O41     O    0.79295   0.63789   0.23794   1.000
    O42     O    0.40684   0.70721   0.24162   1.000
    O43     O    0.90685   0.70720   0.24160   1.000
    O44     O    0.12620   0.60001   0.36224   1.000
    O45     O    0.62621   0.60001   0.36224   1.000
    O46     O    0.24009   0.53445   0.29285   1.000
    O47     O    0.74010   0.53445   0.29285   1.000
    O48     O    0.37379   0.63778   0.40000   1.000
    O49     O    0.87380   0.63778   0.40000   1.000
    O50     O    0.25990   0.70714   0.46560   1.000
    O51     O    0.75991   0.70714   0.46560   1.000
    O52     O    0.04043   0.59998   0.23791   1.000
    O53     O    0.54044   0.59998   0.23791   1.000
    O54     O    0.42653   0.53436   0.24163   1.000
    O55     O    0.92654   0.53436   0.24163   1.000
    O56     O    0.20710   0.76209   0.36210   1.000
    O57     O    0.70711   0.76209   0.36217   1.000
    O58     O    0.09324   0.75831   0.29200   1.000
    O59     O    0.59326   0.75831   0.29280   1.000
    O60     O    0.37382   0.36228   0.60000   1.000
    O61     O    0.87383   0.36228   0.60000   1.000
    O62     O    0.25998   0.29285   0.53445   1.000
    O63     O    0.75999   0.29285   0.53445   1.000
    O64     O    0.04040   0.40003   0.76203   1.000
    O65     O    0.54042   0.40003   0.76202   1.000
    O66     O    0.42652   0.46567   0.75838   1.000
    O67     O    0.92653   0.46567   0.75838   1.000
    O68     O    0.20709   0.23791   0.63783   1.000
    O69     O    0.70710   0.23791   0.63783   1.000
    O70     O    0.09318   0.24164   0.70718   1.000
    O71     O    0.59319   0.24164   0.70710   1.000
loop_
    _geom_bond_atom_site_label_1
    _geom_bond_atom_site_label_2
    _geom_bond_distance
    _geom_bond_site_symmetry_2
    _ccdc_geom_bond_type
    C15    O52       1.28144  1_655   S
    C15    O55       1.27167      .   S
    C14    O53       1.28162      .   S
    C14    O54       1.27167      .   S
    C8     O40       1.28164      .   S
    C8     O42       1.27169      .   S
    C9     O41       1.28156      .   S
    C9     O43       1.27161      .   S
    O58    C16       1.27699      .   S
    O59    C17       1.27160      .   S
    O47    C11       1.27165      .   S
    O46    C10       1.27164      .   S
    C16    O56       1.28048      .   S
    C17    O57       1.28169      .   S
    C10    O44       1.28159      .   S
    C11    O45       1.28159      .   S
    O49    C13       1.28160      .   S
    O36    C7        1.28162      .   S
    O37    C6        1.28144  1_655   S
    O48    C12       1.28160      .   S
    C7     O39       1.27167      .   S
    C6     O38       1.27167      .   S
    C13    O51       1.27167      .   S
    C12    O50       1.27167      .   S
    O26    C0        1.27122      .   S
    O27    C1        1.27168      .   S
    O63    C19       1.27165      .   S
    O62    C18       1.27164      .   S
    C0     O25       1.28283  1_455   S
    C1     O24       1.28106      .   S
    C18    O60       1.28155      .   S
    C19    O61       1.28154      .   S
    O32    C4        1.28160      .   S
    O33    C5        1.28160      .   S
    O68    C22       1.28160      .   S
    O69    C23       1.28119      .   S
    C5     O35       1.27167      .   S
    C4     O34       1.27168      .   S
    C23    O71       1.27134      .   S
    C22    O70       1.27171      .   S
    O31    C3        1.27163      .   S
    O30    C2        1.27159      .   S
    O66    C20       1.27173      .   S
    O67    C21       1.27167      .   S
    O29    C3        1.28219      .   S
    O65    C20       1.28158      .   S
    O64    C21       1.28147  1_455   S
    O28    C2        1.28143      .   S
