# CIF file generated by openbabel 2.4.90, see http://openbabel.sf.net
data_I
_chemical_name_common ''
_cell_length_a 15.41
_cell_length_b 21.433
_cell_length_c 21.434
_cell_angle_alpha 119.984
_cell_angle_beta 89.984
_cell_angle_gamma 90.008
_space_group_name_H-M_alt 'P 1'
_space_group_name_Hall 'P 1'
loop_
    _symmetry_equiv_pos_as_xyz
    x,y,z
loop_
    _atom_site_label
    _atom_site_type_symbol
    _atom_site_fract_x
    _atom_site_fract_y
    _atom_site_fract_z
    _atom_site_occupancy
    Zn0     Zn   0.50002   0.30083   0.69910   1.000
    Zn1     Zn   0.33335   0.39845   0.69915   1.000
    Zn2     Zn   0.83336   0.39845   0.69915   1.000
    Zn3     Zn   0.16666   0.30082   0.60155   1.000
    Zn4     Zn   0.66667   0.30082   0.60155   1.000
    Zn5     Zn   0.99999   0.69915   0.30082   1.000
    Zn6     Zn   0.50000   0.69915   0.30082   1.000
    Zn7     Zn   0.33335   0.60160   0.30085   1.000
    Zn8     Zn   0.83336   0.60160   0.30085   1.000
    Zn9     Zn   0.16667   0.69916   0.39845   1.000
    Zn10    Zn   0.66668   0.69916   0.39845   1.000
    Zn11    Zn   0.00001   0.30083   0.69910   1.000
    C12     C    0.00031   0.21801   0.54070   1.000
    C13     C    0.50032   0.21801   0.54077   1.000
    C14     C    0.33361   0.32286   0.78190   1.000
    C15     C    0.83362   0.32286   0.78191   1.000
    C16     C    0.16688   0.45912   0.67705   1.000
    C17     C    0.66690   0.45912   0.67705   1.000
    C18     C    0.00025   0.78197   0.45915   1.000
    C19     C    0.50027   0.78198   0.45915   1.000
    C20     C    0.33365   0.67715   0.21803   1.000
    C21     C    0.83366   0.67716   0.21804   1.000
    C22     C    0.16689   0.54087   0.32290   1.000
    C23     C    0.66691   0.54087   0.32290   1.000
    C24     C    0.33310   0.67710   0.45915   1.000
    C25     C    0.83311   0.67710   0.45915   1.000
    C26     C    0.49973   0.54082   0.21802   1.000
    C27     C    0.99974   0.54082   0.21802   1.000
    C28     C    0.16641   0.78195   0.32287   1.000
    C29     C    0.66642   0.78195   0.32287   1.000
    C30     C    0.33315   0.32293   0.54087   1.000
    C31     C    0.83316   0.32293   0.54087   1.000
    C32     C    0.49971   0.45919   0.78196   1.000
    C33     C    0.99972   0.45919   0.78195   1.000
    C34     C    0.16638   0.21804   0.67712   1.000
    C35     C    0.66639   0.21804   0.67710   1.000
    O36     O    0.45960   0.23793   0.59990   1.000
    O37     O    0.95961   0.23792   0.59994   1.000
    O38     O    0.07352   0.24158   0.53430   1.000
    O39     O    0.57354   0.24158   0.53430   1.000
    O40     O    0.29291   0.36214   0.76204   1.000
    O41     O    0.79292   0.36214   0.76200   1.000
    O42     O    0.40678   0.29278   0.75828   1.000
    O43     O    0.90680   0.29278   0.75828   1.000
    O44     O    0.12621   0.39998   0.63772   1.000
    O45     O    0.62622   0.39998   0.63772   1.000
    O46     O    0.24005   0.46556   0.70712   1.000
    O47     O    0.74006   0.46556   0.70712   1.000
    O48     O    0.45957   0.76209   0.40000   1.000
    O49     O    0.95958   0.76209   0.40000   1.000
    O50     O    0.07343   0.75836   0.46561   1.000
    O51     O    0.57344   0.75836   0.46561   1.000
    O52     O    0.29294   0.63789   0.23794   1.000
    O53     O    0.79295   0.63789   0.23794   1.000
    O54     O    0.40684   0.70721   0.24162   1.000
    O55     O    0.90685   0.70720   0.24160   1.000
    O56     O    0.12620   0.60001   0.36224   1.000
    O57     O    0.62621   0.60001   0.36224   1.000
    O58     O    0.24009   0.53445   0.29285   1.000
    O59     O    0.74010   0.53445   0.29285   1.000
    O60     O    0.37379   0.63778   0.40000   1.000
    O61     O    0.87380   0.63778   0.40000   1.000
    O62     O    0.25990   0.70714   0.46560   1.000
    O63     O    0.75991   0.70714   0.46560   1.000
    O64     O    0.04043   0.59998   0.23791   1.000
    O65     O    0.54044   0.59998   0.23791   1.000
    O66     O    0.42653   0.53436   0.24163   1.000
    O67     O    0.92654   0.53436   0.24163   1.000
    O68     O    0.20710   0.76209   0.36210   1.000
    O69     O    0.70711   0.76209   0.36217   1.000
    O70     O    0.09324   0.75831   0.29200   1.000
    O71     O    0.59326   0.75831   0.29280   1.000
    O72     O    0.37382   0.36228   0.60000   1.000
    O73     O    0.87383   0.36228   0.60000   1.000
    O74     O    0.25998   0.29285   0.53445   1.000
    O75     O    0.75999   0.29285   0.53445   1.000
    O76     O    0.04040   0.40003   0.76203   1.000
    O77     O    0.54042   0.40003   0.76202   1.000
    O78     O    0.42652   0.46567   0.75838   1.000
    O79     O    0.92653   0.46567   0.75838   1.000
    O80     O    0.20709   0.23791   0.63783   1.000
    O81     O    0.70710   0.23791   0.63783   1.000
    O82     O    0.09318   0.24164   0.70718   1.000
    O83     O    0.59319   0.24164   0.70710   1.000
    Og84    Og   0.98616   0.19938   0.51814   1.000
    Og85    Og   0.48616   0.19938   0.51819   1.000
    Og86    Og   0.31946   0.31890   0.80054   1.000
    Og87    Og   0.81947   0.31890   0.80055   1.000
    Og88    Og   0.15273   0.48172   0.68102   1.000
    Og89    Og   0.65274   0.48172   0.68102   1.000
    Og90    Og   0.98611   0.80061   0.48173   1.000
    Og91    Og   0.48611   0.80061   0.48173   1.000
    Og92    Og   0.31949   0.68111   0.19940   1.000
    Og93    Og   0.81950   0.68111   0.19941   1.000
    Og94    Og   0.15274   0.51827   0.31890   1.000
    Og95    Og   0.65275   0.51827   0.31892   1.000
    Og96    Og   0.34726   0.68107   0.48174   1.000
    Og97    Og   0.84727   0.68107   0.48174   1.000
    Og98    Og   0.51388   0.51824   0.19939   1.000
    Og99    Og   0.01389   0.51824   0.19939   1.000
    Og100   Og   0.18056   0.80058   0.31891   1.000
    Og101   Og   0.68057   0.80058   0.31891   1.000
    Og102   Og   0.34730   0.31895   0.51827   1.000
    Og103   Og   0.84731   0.31895   0.51827   1.000
    Og104   Og   0.51386   0.48177   0.80060   1.000
    Og105   Og   0.01387   0.48177   0.80059   1.000
    Og106   Og   0.18054   0.19941   0.68109   1.000
    Og107   Og   0.68055   0.19941   0.68107   1.000
loop_
    _geom_bond_atom_site_label_1
    _geom_bond_atom_site_label_2
    _geom_bond_distance
    _geom_bond_site_symmetry_2
    _ccdc_geom_bond_type
    C27    O64       1.28144  1_655   S
    C27    O67       1.27167      .   S
    C26    O65       1.28162      .   S
    C26    O66       1.27167      .   S
    C20    O52       1.28164      .   S
    C20    O54       1.27169      .   S
    C21    O53       1.28156      .   S
    C21    O55       1.27161      .   S
    O65    Zn6       1.96463      .   S
    O64    Zn5       1.96464  1_455   S
    O52    Zn7       1.96464      .   S
    O53    Zn8       1.96462      .   S
    O55    Zn5       1.98014      .   S
    O54    Zn6       1.98012      .   S
    O66    Zn7       1.98015      .   S
    O67    Zn8       1.98013      .   S
    O70    Zn5       1.98684  1_455   S
    O70    C28       1.27699      .   S
    O71    Zn6       1.97982      .   S
    O71    C29       1.27160      .   S
    O59    Zn8       1.97972      .   S
    O59    C23       1.27165      .   S
    O58    Zn7       1.97973      .   S
    O58    C22       1.27164      .   S
    Zn5    O49       1.96462      .   S
    Zn6    O48       1.96473      .   S
    Zn8    O61       1.96454      .   S
    Zn7    O60       1.96454      .   S
    C28    O68       1.28048      .   S
    C29    O69       1.28169      .   S
    C22    O56       1.28159      .   S
    C23    O57       1.28159      .   S
    O68    Zn9       1.96564      .   S
    O69    Zn10      1.96457      .   S
    O56    Zn9       1.96441      .   S
    O57    Zn10      1.96441      .   S
    Zn9    O62       1.97994      .   S
    Zn9    O50       1.97996      .   S
    Zn10   O63       1.97994      .   S
    Zn10   O51       1.97995      .   S
    O61    C25       1.28160      .   S
    O48    C19       1.28162      .   S
    O49    C18       1.28144  1_655   S
    O60    C24       1.28160      .   S
    C19    O51       1.27167      .   S
    C18    O50       1.27167      .   S
    C25    O63       1.27167      .   S
    C24    O62       1.27167      .   S
    O38    C12       1.27122      .   S
    O38    Zn3       1.98020      .   S
    O39    C13       1.27168      .   S
    O39    Zn4       1.98019      .   S
    O75    C31       1.27165      .   S
    O75    Zn4       1.97964      .   S
    O74    C30       1.27164      .   S
    O74    Zn3       1.97963      .   S
    C12    O37       1.28283  1_455   S
    C13    O36       1.28106      .   S
    C30    O72       1.28155      .   S
    C31    O73       1.28154      .   S
    O36    Zn0       1.96515      .   S
    O37    Zn11      1.96442  1_655   S
    O73    Zn2       1.96444      .   S
    O72    Zn1       1.96443      .   S
    Zn3    O44       1.96445      .   S
    Zn3    O80       1.96457      .   S
    Zn4    O45       1.96447      .   S
    Zn4    O81       1.96461      .   S
    O44    C16       1.28160      .   S
    O45    C17       1.28160      .   S
    O80    C34       1.28160      .   S
    O81    C35       1.28119      .   S
    C17    O47       1.27167      .   S
    C16    O46       1.27168      .   S
    C35    O83       1.27134      .   S
    C34    O82       1.27171      .   S
    Zn0    O83       1.97951      .   S
    Zn0    O42       1.98007      .   S
    Zn0    O77       1.96483      .   S
    Zn11   O82       1.98021      .   S
    Zn11   O43       1.97978  1_455   S
    Zn11   O76       1.96485      .   S
    Zn2    O47       1.97983      .   S
    Zn2    O79       1.98015      .   S
    Zn2    O41       1.96369      .   S
    Zn1    O46       1.97984      .   S
    Zn1    O78       1.98017      .   S
    Zn1    O40       1.96446      .   S
    O43    C15       1.27163      .   S
    O42    C14       1.27159      .   S
    O78    C32       1.27173      .   S
    O79    C33       1.27167      .   S
    O41    C15       1.28219      .   S
    O77    C32       1.28158      .   S
    O76    C33       1.28147  1_455   S
    O40    C14       1.28143      .   S
    C12    Og84      0.49780  1_455   S
    C13    Og85      0.49814      .   S
    C14    Og86      0.49823      .   S
    C15    Og87      0.49818      .   S
    C16    Og88      0.49814      .   S
    C17    Og89      0.49814      .   S
    C18    Og90      0.49807  1_455   S
    C19    Og91      0.49813      .   S
    C20    Og92      0.49814      .   S
    C21    Og93      0.49821      .   S
    C22    Og94      0.49800      .   S
    C23    Og95      0.49812      .   S
    C24    Og96      0.49812      .   S
    C25    Og97      0.49812      .   S
    C26    Og98      0.49813      .   S
    C27    Og99      0.49809  1_655   S
    C28    Og100     0.49816      .   S
    C29    Og101     0.49816      .   S
    C30    Og102     0.49810      .   S
    C31    Og103     0.49810      .   S
    C32    Og104     0.49817      .   S
    C33    Og105     0.49813  1_655   S
    C34    Og106     0.49818      .   S
    C35    Og107     0.49826      .   S
