# CIF file generated by openbabel 2.4.90, see http://openbabel.sf.net
data_I
_chemical_name_common ''
_cell_length_a 15.41
_cell_length_b 21.433
_cell_length_c 21.434
_cell_angle_alpha 119.984
_cell_angle_beta 89.984
_cell_angle_gamma 90.008
_space_group_name_H-M_alt 'P 1'
_space_group_name_Hall 'P 1'
loop_
    _symmetry_equiv_pos_as_xyz
    x,y,z
loop_
    _atom_site_label
    _atom_site_type_symbol
    _atom_site_fract_x
    _atom_site_fract_y
    _atom_site_fract_z
    _atom_site_occupancy
    Zr0     Zr   0.00001   0.30083   0.69910   1.000
    Zr1     Zr   0.50002   0.30083   0.69910   1.000
    Zr2     Zr   0.33335   0.39845   0.69915   1.000
    Zr3     Zr   0.83336   0.39845   0.69915   1.000
    Zr4     Zr   0.16666   0.30082   0.60155   1.000
    Zr5     Zr   0.66667   0.30082   0.60155   1.000
    Zr6     Zr   0.99999   0.69915   0.30082   1.000
    Zr7     Zr   0.50000   0.69915   0.30082   1.000
    Zr8     Zr   0.33335   0.60160   0.30085   1.000
    Zr9     Zr   0.83336   0.60160   0.30085   1.000
    Zr10    Zr   0.16667   0.69916   0.39845   1.000
    Zr11    Zr   0.66668   0.69916   0.39845   1.000
    N12     N    0.66667   0.68525   0.99997   1.000
    N13     N    0.00001   0.31471   0.31469   1.000
    N14     N    0.33335   0.00002   0.68525   1.000
    N15     N    0.66668   0.31474   0.99998   1.000
    N16     N    0.00001   0.68529   0.68526   1.000
    N17     N    0.50001   0.68529   0.68526   1.000
    N18     N    0.16667   0.31474   0.99998   1.000
    N19     N    0.33335   0.00001   0.31472   1.000
    N20     N    0.50001   0.31471   0.31469   1.000
    N21     N    0.83333   0.00001   0.31473   1.000
    N22     N    0.16666   0.68525   0.99998   1.000
    N23     N    0.83333   0.00002   0.68525   1.000
    C24     C    0.84445   0.32593   0.76740   1.000
    O25     O    0.89892   0.31137   0.74804   1.000
    O26     O    0.82879   0.35311   0.74899   1.000
    O27     O    0.79199   0.32088   0.83616   1.000
    C28     C    0.98888   0.44163   0.76745   1.000
    O29     O    0.93441   0.43684   0.74811   1.000
    O30     O    0.00454   0.39603   0.74901   1.000
    O31     O    0.04134   0.51539   0.83620   1.000
    C32     C    0.51115   0.23250   0.55832   1.000
    O33     O    0.56563   0.25185   0.56312   1.000
    O34     O    0.49548   0.25094   0.60391   1.000
    O35     O    0.45868   0.16377   0.48457   1.000
    C36     C    0.32232   0.32602   0.55844   1.000
    O37     O    0.26782   0.31143   0.56322   1.000
    O38     O    0.33795   0.35319   0.60401   1.000
    O39     O    0.37475   0.32093   0.48464   1.000
    C40     C    0.15555   0.23253   0.67404   1.000
    O41     O    0.10107   0.25188   0.68859   1.000
    O42     O    0.17121   0.25095   0.64687   1.000
    O43     O    0.20802   0.16379   0.67910   1.000
    C44     C    0.65556   0.23253   0.67401   1.000
    O45     O    0.60108   0.25188   0.68856   1.000
    O46     O    0.67122   0.25095   0.64685   1.000
    O47     O    0.70802   0.16379   0.67908   1.000
    C48     C    0.48888   0.44163   0.76745   1.000
    O49     O    0.43441   0.43684   0.74811   1.000
    O50     O    0.54134   0.51539   0.83620   1.000
    O51     O    0.50455   0.39603   0.74901   1.000
    C52     C    0.17772   0.44155   0.67396   1.000
    O53     O    0.12527   0.51535   0.67905   1.000
    O54     O    0.23221   0.43678   0.68855   1.000
    O55     O    0.16207   0.39598   0.64680   1.000
    C56     C    0.01115   0.23250   0.55831   1.000
    O57     O    0.99548   0.25094   0.60392   1.000
    O58     O    0.95868   0.16377   0.48455   1.000
    O59     O    0.06562   0.25185   0.56312   1.000
    C60     C    0.82233   0.32602   0.55844   1.000
    O61     O    0.76783   0.31143   0.56322   1.000
    O62     O    0.83796   0.35319   0.60401   1.000
    O63     O    0.87476   0.32093   0.48464   1.000
    C64     C    0.34443   0.32593   0.76741   1.000
    O65     O    0.39892   0.31137   0.74805   1.000
    O66     O    0.32878   0.35311   0.74900   1.000
    O67     O    0.29198   0.32088   0.83616   1.000
    C68     C    0.67773   0.44155   0.67396   1.000
    O69     O    0.62528   0.51535   0.67905   1.000
    O70     O    0.73222   0.43678   0.68855   1.000
    O71     O    0.66209   0.39598   0.64680   1.000
    C72     C    0.51109   0.76747   0.44159   1.000
    O73     O    0.56558   0.74812   0.43681   1.000
    O74     O    0.45864   0.83622   0.51536   1.000
    O75     O    0.49544   0.74905   0.39600   1.000
    C76     C    0.48890   0.55839   0.23252   1.000
    O77     O    0.54136   0.48462   0.16377   1.000
    O78     O    0.43442   0.56319   0.25188   1.000
    O79     O    0.50456   0.60398   0.25094   1.000
    C80     C    0.01109   0.76747   0.44159   1.000
    O81     O    0.99544   0.74905   0.39600   1.000
    O82     O    0.06557   0.74812   0.43681   1.000
    O83     O    0.95864   0.83622   0.51536   1.000
    C84     C    0.15558   0.76745   0.32566   1.000
    O85     O    0.20804   0.83620   0.32074   1.000
    O86     O    0.17123   0.74904   0.35297   1.000
    O87     O    0.10110   0.74809   0.31103   1.000
    C88     C    0.34448   0.67408   0.23253   1.000
    O89     O    0.32881   0.64691   0.25096   1.000
    O90     O    0.39895   0.68863   0.25188   1.000
    O91     O    0.29201   0.67913   0.16378   1.000
    C92     C    0.84449   0.67408   0.23253   1.000
    O93     O    0.82882   0.64691   0.25096   1.000
    O94     O    0.89896   0.68863   0.25187   1.000
    O95     O    0.79202   0.67913   0.16378   1.000
    C96     C    0.32226   0.67401   0.44158   1.000
    O97     O    0.37472   0.67909   0.51536   1.000
    O98     O    0.26777   0.68858   0.43680   1.000
    O99     O    0.33792   0.64685   0.39600   1.000
    C100    C    0.82227   0.67401   0.44158   1.000
    O101    O    0.76779   0.68858   0.43680   1.000
    O102    O    0.83793   0.64685   0.39600   1.000
    O103    O    0.87473   0.67909   0.51537   1.000
    C104    C    0.98890   0.55839   0.23252   1.000
    O105    O    0.00456   0.60398   0.25094   1.000
    O106    O    0.04136   0.48462   0.16377   1.000
    O107    O    0.93443   0.56319   0.25188   1.000
    C108    C    0.67774   0.55844   0.32600   1.000
    O109    O    0.62529   0.48464   0.32090   1.000
    O110    O    0.66209   0.60401   0.35317   1.000
    O111    O    0.73224   0.56323   0.31142   1.000
    C112    C    0.17773   0.55844   0.32600   1.000
    O113    O    0.12528   0.48464   0.32089   1.000
    O114    O    0.16208   0.60401   0.35317   1.000
    O115    O    0.23223   0.56323   0.31142   1.000
    C116    C    0.65559   0.76745   0.32595   1.000
    O117    O    0.67124   0.74904   0.35313   1.000
    O118    O    0.60111   0.74809   0.31138   1.000
    O119    O    0.70804   0.83620   0.32089   1.000
loop_
    _geom_bond_atom_site_label_1
    _geom_bond_atom_site_label_2
    _geom_bond_distance
    _geom_bond_site_symmetry_2
    _ccdc_geom_bond_type
    C24    O25       0.91908      .   S
    Zr0    O25       1.82765  1_455   S
    C24    O26       0.88505      .   S
    Zr3    O26       1.76856      .   S
    C24    O27       1.73097      .   S
    N15    O27       4.06623      .   S
    C28    O29       0.91906      .   S
    Zr3    O29       1.82780      .   S
    C28    O30       0.88518  1_655   S
    Zr0    O30       1.76936      .   S
    C28    O31       1.73092  1_655   S
    N22    O31       4.06634      .   S
    C32    O33       0.91900      .   S
    Zr5    O33       1.82776      .   S
    C32    O34       0.88500      .   S
    Zr1    O34       1.76930      .   S
    C32    O35       1.73083      .   S
    N19    O35       4.06613      .   S
    C36    O37       0.91951      .   S
    Zr4    O37       1.82823      .   S
    C36    O38       0.88471      .   S
    Zr2    O38       1.76844      .   S
    C36    O39       1.73037      .   S
    N20    O39       4.06490      .   S
    C40    O41       0.91909      .   S
    Zr0    O41       1.82784      .   S
    C40    O42       0.88495      .   S
    Zr4    O42       1.76887      .   S
    C40    O43       1.73087      .   S
    N14    O43       4.06619      .   S
    C44    O45       0.91909      .   S
    Zr1    O45       1.82771      .   S
    C44    O46       0.88464      .   S
    Zr5    O46       1.76858      .   S
    C44    O47       1.73095      .   S
    N23    O47       4.06618      .   S
    C48    O49       0.91911      .   S
    Zr2    O49       1.82786      .   S
    C48    O50       1.73093      .   S
    N12    O50       4.06627      .   S
    C48    O51       0.88520      .   S
    Zr1    O51       1.76935      .   S
    C52    O53       1.73056      .   S
    N16    O53       4.06533      .   S
    C52    O54       0.91950      .   S
    Zr2    O54       1.82831      .   S
    C52    O55       0.88478      .   S
    Zr4    O55       1.76856      .   S
    C56    O57       0.88528  1_455   S
    Zr0    O57       1.76921  1_455   S
    C56    O58       1.73087  1_455   S
    N21    O58       4.06604      .   S
    C56    O59       0.91894      .   S
    Zr4    O59       1.82774      .   S
    C60    O61       0.91951      .   S
    Zr5    O61       1.82825      .   S
    C60    O62       0.88471      .   S
    Zr3    O62       1.76844      .   S
    C60    O63       1.73034      .   S
    N13    O63       4.06482  1_455   S
    C64    O65       0.91919      .   S
    Zr1    O65       1.82793      .   S
    C64    O66       0.88496      .   S
    Zr2    O66       1.76884      .   S
    C64    O67       1.73081      .   S
    N18    O67       4.06609      .   S
    C68    O69       1.73057      .   S
    N17    O69       4.06539      .   S
    C68    O70       0.91950      .   S
    Zr3    O70       1.82830      .   S
    C68    O71       0.88478      .   S
    Zr5    O71       1.76857      .   S
    C72    O73       0.91928      .   S
    Zr11   O73       1.82803      .   S
    C72    O74       1.73082      .   S
    N14    O74       4.06605  1_545   S
    C72    O75       0.88507      .   S
    Zr7    O75       1.76911      .   S
    C76    O77       1.73084      .   S
    N15    O77       4.06608  1_556   S
    C76    O78       0.91910      .   S
    Zr8    O78       1.82784      .   S
    C76    O79       0.88501      .   S
    Zr7    O79       1.76898      .   S
    C80    O81       0.88506  1_455   S
    Zr6    O81       1.76910      .   S
    C80    O82       0.91923      .   S
    Zr10   O82       1.82799      .   S
    C80    O83       1.73083  1_455   S
    N23    O83       4.06610  1_545   S
    C84    O85       1.72935      .   S
    N19    O85       4.06471  1_545   S
    C84    O86       0.88742      .   S
    Zr10   O86       1.77189      .   S
    C84    O87       0.91942      .   S
    Zr6    O87       1.82920  1_655   S
    C88    O89       0.88505      .   S
    Zr8    O89       1.76905      .   S
    C88    O90       0.91906      .   S
    Zr7    O90       1.82778      .   S
    C88    O91       1.73108      .   S
    N22    O91       4.06677  1_556   S
    C92    O93       0.88508      .   S
    Zr9    O93       1.76908      .   S
    C92    O94       0.91897      .   S
    Zr6    O94       1.82763      .   S
    C92    O95       1.73113      .   S
    N12    O95       4.06701  1_556   S
    C96    O97       1.73051      .   S
    N17    O97       4.06526      .   S
    C96    O98       0.91935      .   S
    Zr10   O98       1.82811      .   S
    C96    O99       0.88484      .   S
    Zr8    O99       1.76868      .   S
    C100   O101      0.91935      .   S
    Zr11   O101      1.82811      .   S
    C100   O102      0.88484      .   S
    Zr9    O102      1.76868      .   S
    C100   O103      1.73049      .   S
    N16    O103      4.06520  1_455   S
    C104   O105      0.88498  1_655   S
    Zr6    O105      1.76899  1_655   S
    C104   O106      1.73081  1_655   S
    N18    O106      4.06604  1_556   S
    C104   O107      0.91904      .   S
    Zr9    O107      1.82778      .   S
    C108   O109      1.73040      .   S
    N20    O109      4.06493      .   S
    C108   O110      0.88474      .   S
    Zr11   O110      1.76848      .   S
    C108   O111      0.91937      .   S
    Zr9    O111      1.82807      .   S
    C112   O113      1.73032      .   S
    N13    O113      4.06494      .   S
    C112   O114      0.88474      .   S
    Zr10   O114      1.76848      .   S
    C112   O115      0.91937      .   S
    Zr8    O115      1.82807      .   S
    C116   O117      0.88501      .   S
    Zr11   O117      1.76895      .   S
    C116   O118      0.91929      .   S
    Zr7    O118      1.82799      .   S
    C116   O119      1.73079      .   S
    N21    O119      4.06596  1_545   S
