# CIF file generated by openbabel 2.4.90, see http://openbabel.sf.net
data_I
_chemical_name_common ''
_cell_length_a 15.41
_cell_length_b 21.433
_cell_length_c 21.434
_cell_angle_alpha 119.984
_cell_angle_beta 89.984
_cell_angle_gamma 90.008
_space_group_name_H-M_alt 'P 1'
_space_group_name_Hall 'P 1'
loop_
    _symmetry_equiv_pos_as_xyz
    x,y,z
loop_
    _atom_site_label
    _atom_site_type_symbol
    _atom_site_fract_x
    _atom_site_fract_y
    _atom_site_fract_z
    _atom_site_occupancy
    Zr0     Zr   0.00001   0.30083   0.69910   1.000
    Zr1     Zr   0.50002   0.30083   0.69910   1.000
    Zr2     Zr   0.33335   0.39845   0.69915   1.000
    Zr3     Zr   0.83336   0.39845   0.69915   1.000
    Zr4     Zr   0.16666   0.30082   0.60155   1.000
    Zr5     Zr   0.66667   0.30082   0.60155   1.000
    Zr6     Zr   0.99999   0.69915   0.30082   1.000
    Zr7     Zr   0.50000   0.69915   0.30082   1.000
    Zr8     Zr   0.33335   0.60160   0.30085   1.000
    Zr9     Zr   0.83336   0.60160   0.30085   1.000
    Zr10    Zr   0.16667   0.69916   0.39845   1.000
    Zr11    Zr   0.66668   0.69916   0.39845   1.000
    Zr12    Zr   0.00031   0.21801   0.54070   1.000
    Zr13    Zr   0.50032   0.21801   0.54077   1.000
    Zr14    Zr   0.33361   0.32286   0.78190   1.000
    Zr15    Zr   0.83362   0.32286   0.78191   1.000
    Zr16    Zr   0.16688   0.45912   0.67705   1.000
    Zr17    Zr   0.66690   0.45912   0.67705   1.000
    Zr18    Zr   0.00025   0.78197   0.45915   1.000
    Zr19    Zr   0.50027   0.78198   0.45915   1.000
    Zr20    Zr   0.33365   0.67715   0.21803   1.000
    Zr21    Zr   0.83366   0.67716   0.21804   1.000
    Zr22    Zr   0.16689   0.54087   0.32290   1.000
    Zr23    Zr   0.66691   0.54087   0.32290   1.000
    Zr24    Zr   0.33310   0.67710   0.45915   1.000
    Zr25    Zr   0.83311   0.67710   0.45915   1.000
    Zr26    Zr   0.49973   0.54082   0.21802   1.000
    Zr27    Zr   0.99974   0.54082   0.21802   1.000
    Zr28    Zr   0.16641   0.78195   0.32287   1.000
    Zr29    Zr   0.66642   0.78195   0.32287   1.000
    Zr30    Zr   0.33315   0.32293   0.54087   1.000
    Zr31    Zr   0.83316   0.32293   0.54087   1.000
    Zr32    Zr   0.49971   0.45919   0.78196   1.000
    Zr33    Zr   0.99972   0.45919   0.78195   1.000
    Zr34    Zr   0.16638   0.21804   0.67712   1.000
    Zr35    Zr   0.66639   0.21804   0.67710   1.000
    Zr36    Zr   0.45960   0.23793   0.59990   1.000
    Zr37    Zr   0.95961   0.23792   0.59994   1.000
    Zr38    Zr   0.07352   0.24158   0.53430   1.000
    Zr39    Zr   0.57354   0.24158   0.53430   1.000
    Zr40    Zr   0.29291   0.36214   0.76204   1.000
    Zr41    Zr   0.79292   0.36214   0.76200   1.000
    Zr42    Zr   0.40678   0.29278   0.75828   1.000
    Zr43    Zr   0.90680   0.29278   0.75828   1.000
    Zr44    Zr   0.12621   0.39998   0.63772   1.000
    Zr45    Zr   0.62622   0.39998   0.63772   1.000
    Zr46    Zr   0.24005   0.46556   0.70712   1.000
    Zr47    Zr   0.74006   0.46556   0.70712   1.000
    Zr48    Zr   0.45957   0.76209   0.40000   1.000
    Zr49    Zr   0.95958   0.76209   0.40000   1.000
    Zr50    Zr   0.07343   0.75836   0.46561   1.000
    Zr51    Zr   0.57344   0.75836   0.46561   1.000
    Zr52    Zr   0.29294   0.63789   0.23794   1.000
    Zr53    Zr   0.79295   0.63789   0.23794   1.000
    Zr54    Zr   0.40684   0.70721   0.24162   1.000
    Zr55    Zr   0.90685   0.70720   0.24160   1.000
    Zr56    Zr   0.12620   0.60001   0.36224   1.000
    Zr57    Zr   0.62621   0.60001   0.36224   1.000
    Zr58    Zr   0.24009   0.53445   0.29285   1.000
    Zr59    Zr   0.74010   0.53445   0.29285   1.000
    Zr60    Zr   0.37379   0.63778   0.40000   1.000
    Zr61    Zr   0.87380   0.63778   0.40000   1.000
    Zr62    Zr   0.25990   0.70714   0.46560   1.000
    Zr63    Zr   0.75991   0.70714   0.46560   1.000
    Zr64    Zr   0.04043   0.59998   0.23791   1.000
    Zr65    Zr   0.54044   0.59998   0.23791   1.000
    Zr66    Zr   0.42653   0.53436   0.24163   1.000
    Zr67    Zr   0.92654   0.53436   0.24163   1.000
    Zr68    Zr   0.20710   0.76209   0.36210   1.000
    Zr69    Zr   0.70711   0.76209   0.36217   1.000
    Zr70    Zr   0.09324   0.75831   0.29200   1.000
    Zr71    Zr   0.59326   0.75831   0.29280   1.000
    Zr72    Zr   0.37382   0.36228   0.60000   1.000
    Zr73    Zr   0.87383   0.36228   0.60000   1.000
    Zr74    Zr   0.25998   0.29285   0.53445   1.000
    Zr75    Zr   0.75999   0.29285   0.53445   1.000
    Zr76    Zr   0.04040   0.40003   0.76203   1.000
    Zr77    Zr   0.54042   0.40003   0.76202   1.000
    Zr78    Zr   0.42652   0.46567   0.75838   1.000
    Zr79    Zr   0.92653   0.46567   0.75838   1.000
    Zr80    Zr   0.20709   0.23791   0.63783   1.000
    Zr81    Zr   0.70710   0.23791   0.63783   1.000
    Zr82    Zr   0.09318   0.24164   0.70718   1.000
    Zr83    Zr   0.59319   0.24164   0.70710   1.000
    O84     O    0.02008   0.57040   0.22797   1.000
    O85     O    0.96314   0.53759   0.22983   1.000
    O86     O    0.52008   0.57040   0.22797   1.000
    O87     O    0.46313   0.53759   0.22983   1.000
    O88     O    0.31329   0.65752   0.22798   1.000
    O89     O    0.37025   0.69218   0.22983   1.000
    O90     O    0.81330   0.65752   0.22799   1.000
    O91     O    0.87026   0.69218   0.22982   1.000
    O92     O    0.52022   0.64957   0.26936   1.000
    O93     O    0.02021   0.64957   0.26936   1.000
    O94     O    0.31315   0.61975   0.26939   1.000
    O95     O    0.81316   0.61974   0.26939   1.000
    O96     O    0.95342   0.70318   0.27121   1.000
    O97     O    0.45342   0.70318   0.27122   1.000
    O98     O    0.37994   0.56798   0.27124   1.000
    O99     O    0.87995   0.56798   0.27124   1.000
    O100    O    0.04662   0.72873   0.29641   1.000
    O101    O    0.12983   0.77013   0.30743   1.000
    O102    O    0.54663   0.72873   0.29681   1.000
    O103    O    0.62984   0.77013   0.30784   1.000
    O104    O    0.78673   0.56802   0.29685   1.000
    O105    O    0.70350   0.53766   0.30788   1.000
    O106    O    0.28672   0.56803   0.29685   1.000
    O107    O    0.20349   0.53766   0.30788   1.000
    O108    O    0.97979   0.73062   0.35041   1.000
    O109    O    0.47979   0.73062   0.35041   1.000
    O110    O    0.85358   0.61969   0.35043   1.000
    O111    O    0.35357   0.61969   0.35043   1.000
    O112    O    0.18675   0.77202   0.34248   1.000
    O113    O    0.68676   0.77202   0.34252   1.000
    O114    O    0.14655   0.57044   0.34257   1.000
    O115    O    0.64656   0.57044   0.34257   1.000
    O116    O    0.18688   0.73062   0.38027   1.000
    O117    O    0.68689   0.73063   0.38031   1.000
    O118    O    0.14644   0.64959   0.38034   1.000
    O119    O    0.64645   0.64959   0.38034   1.000
    O120    O    0.21329   0.70315   0.43203   1.000
    O121    O    0.12005   0.72876   0.43203   1.000
    O122    O    0.71330   0.70315   0.43203   1.000
    O123    O    0.62006   0.72876   0.43203   1.000
    O124    O    0.85345   0.65744   0.42958   1.000
    O125    O    0.47992   0.77203   0.42958   1.000
    O126    O    0.97992   0.77203   0.42958   1.000
    O127    O    0.35344   0.65744   0.42958   1.000
    O128    O    0.53685   0.77017   0.46238   1.000
    O129    O    0.03684   0.77017   0.46238   1.000
    O130    O    0.79651   0.69212   0.46238   1.000
    O131    O    0.29650   0.69212   0.46238   1.000
    O132    O    0.03692   0.22979   0.53750   1.000
    O133    O    0.12009   0.27120   0.56793   1.000
    O134    O    0.53693   0.22979   0.53753   1.000
    O135    O    0.62010   0.27120   0.56793   1.000
    O136    O    0.79657   0.30789   0.53766   1.000
    O137    O    0.71333   0.29684   0.56800   1.000
    O138    O    0.29656   0.30789   0.53766   1.000
    O139    O    0.21332   0.29684   0.56800   1.000
    O140    O    0.97996   0.22797   0.57032   1.000
    O141    O    0.47996   0.22797   0.57034   1.000
    O142    O    0.35348   0.34260   0.57044   1.000
    O143    O    0.85350   0.34260   0.57044   1.000
    O144    O    0.47981   0.26938   0.64950   1.000
    O145    O    0.97981   0.26938   0.64952   1.000
    O146    O    0.85360   0.38037   0.64958   1.000
    O147    O    0.35358   0.38036   0.64958   1.000
    O148    O    0.14643   0.35040   0.61963   1.000
    O149    O    0.18688   0.26937   0.61969   1.000
    O150    O    0.64645   0.35040   0.61963   1.000
    O151    O    0.68689   0.26937   0.61969   1.000
    O152    O    0.14655   0.42955   0.65738   1.000
    O153    O    0.64656   0.42955   0.65738   1.000
    O154    O    0.18673   0.22798   0.65748   1.000
    O155    O    0.68675   0.22798   0.65746   1.000
    O156    O    0.70348   0.46234   0.69209   1.000
    O157    O    0.20347   0.46234   0.69209   1.000
    O158    O    0.62979   0.22984   0.69210   1.000
    O159    O    0.12978   0.22984   0.69215   1.000
    O160    O    0.54660   0.27124   0.70310   1.000
    O161    O    0.45340   0.29681   0.72869   1.000
    O162    O    0.52022   0.35043   0.73056   1.000
    O163    O    0.04659   0.27124   0.70314   1.000
    O164    O    0.95340   0.29681   0.72869   1.000
    O165    O    0.02020   0.35043   0.73057   1.000
    O166    O    0.78671   0.43201   0.70314   1.000
    O167    O    0.87994   0.43206   0.72876   1.000
    O168    O    0.81314   0.38030   0.73057   1.000
    O169    O    0.28670   0.43201   0.70314   1.000
    O170    O    0.37993   0.43206   0.72876   1.000
    O171    O    0.31313   0.38030   0.73060   1.000
    O172    O    0.87021   0.30782   0.77009   1.000
    O173    O    0.37020   0.30782   0.77009   1.000
    O174    O    0.46311   0.46243   0.77017   1.000
    O175    O    0.96313   0.46243   0.77016   1.000
    O176    O    0.81327   0.34250   0.77196   1.000
    O177    O    0.52006   0.42961   0.77199   1.000
    O178    O    0.02006   0.42961   0.77199   1.000
    O179    O    0.31326   0.34250   0.77197   1.000
    N180    N    0.66667   0.68525   0.99997   1.000
    O181    O    0.59381   0.58916   0.90494   1.000
    O182    O    0.73955   0.68417   0.09503   1.000
    N183    N    0.00001   0.31471   0.31469   1.000
    O184    O    0.07283   0.41084   0.31579   1.000
    O185    O    0.92720   0.31583   0.41083   1.000
    N186    N    0.33335   0.00002   0.68525   1.000
    O187    O    0.40619   0.90497   0.58914   1.000
    O188    O    0.26048   0.09506   0.68416   1.000
    N189    N    0.66668   0.31474   0.99998   1.000
    O190    O    0.73953   0.31583   0.90492   1.000
    O191    O    0.59382   0.41084   0.09503   1.000
    N192    N    0.00001   0.68529   0.68526   1.000
    O193    O    0.07283   0.58915   0.68413   1.000
    O194    O    0.92718   0.68417   0.58915   1.000
    N195    N    0.50001   0.68529   0.68526   1.000
    O196    O    0.42717   0.68417   0.58915   1.000
    O197    O    0.57284   0.58915   0.68413   1.000
    N198    N    0.16667   0.31474   0.99998   1.000
    O199    O    0.23952   0.31583   0.90492   1.000
    O200    O    0.09381   0.41084   0.09503   1.000
    N201    N    0.33335   0.00001   0.31472   1.000
    O202    O    0.40621   0.09504   0.41081   1.000
    O203    O    0.26049   0.90495   0.31583   1.000
    N204    N    0.50001   0.31471   0.31469   1.000
    O205    O    0.57284   0.41084   0.31581   1.000
    O206    O    0.42719   0.31584   0.41083   1.000
    N207    N    0.83333   0.00001   0.31473   1.000
    O208    O    0.76049   0.90495   0.31583   1.000
    O209    O    0.90620   0.09504   0.41080   1.000
    N210    N    0.16666   0.68525   0.99998   1.000
    O211    O    0.09380   0.58916   0.90494   1.000
    O212    O    0.23954   0.68417   0.09503   1.000
    N213    N    0.83333   0.00002   0.68525   1.000
    O214    O    0.90618   0.90497   0.58914   1.000
    O215    O    0.76048   0.09506   0.68415   1.000
loop_
    _geom_bond_atom_site_label_1
    _geom_bond_atom_site_label_2
    _geom_bond_distance
    _geom_bond_site_symmetry_2
    _ccdc_geom_bond_type
    Zr27   O84       0.64072  1_655   S
    Zr64   O84       0.64072      .   S
    Zr27   O85       0.63584      .   S
    Zr67   O85       0.63584      .   S
    Zr26   O86       0.64081      .   S
    Zr65   O86       0.64081      .   S
    Zr26   O87       0.63584      .   S
    Zr66   O87       0.63584      .   S
    Zr20   O88       0.64082      .   S
    Zr52   O88       0.64082      .   S
    Zr20   O89       0.63585      .   S
    Zr54   O89       0.63585      .   S
    Zr21   O90       0.64078      .   S
    Zr53   O90       0.64078      .   S
    Zr21   O91       0.63580      .   S
    Zr55   O91       0.63580      .   S
    Zr65   O92       0.98231      .   S
    Zr7    O92       0.98231      .   S
    Zr64   O93       0.98232      .   S
    Zr6    O93       0.98232  1_655   S
    Zr52   O94       0.98232      .   S
    Zr8    O94       0.98232      .   S
    Zr53   O95       0.98231      .   S
    Zr9    O95       0.98231      .   S
    Zr55   O96       0.99007      .   S
    Zr6    O96       0.99007      .   S
    Zr54   O97       0.99006      .   S
    Zr7    O97       0.99006      .   S
    Zr66   O98       0.99008      .   S
    Zr8    O98       0.99008      .   S
    Zr67   O99       0.99007      .   S
    Zr9    O99       0.99007      .   S
    Zr70   O100      0.99342      .   S
    Zr6    O100      0.99342  1_655   S
    Zr70   O101      0.63849      .   S
    Zr28   O101      0.63849      .   S
    Zr71   O102      0.98991      .   S
    Zr7    O102      0.98991      .   S
    Zr71   O103      0.63580      .   S
    Zr29   O103      0.63580      .   S
    Zr59   O104      0.98986      .   S
    Zr9    O104      0.98986      .   S
    Zr59   O105      0.63583      .   S
    Zr23   O105      0.63583      .   S
    Zr58   O106      0.98987      .   S
    Zr8    O106      0.98987      .   S
    Zr58   O107      0.63582      .   S
    Zr22   O107      0.63582      .   S
    Zr6    O108      0.98231      .   S
    Zr49   O108      0.98231      .   S
    Zr7    O109      0.98236      .   S
    Zr48   O109      0.98236      .   S
    Zr9    O110      0.98227      .   S
    Zr61   O110      0.98227      .   S
    Zr8    O111      0.98227      .   S
    Zr60   O111      0.98227      .   S
    Zr28   O112      0.64024      .   S
    Zr68   O112      0.64024      .   S
    Zr29   O113      0.64085      .   S
    Zr69   O113      0.64085      .   S
    Zr22   O114      0.64079      .   S
    Zr56   O114      0.64079      .   S
    Zr23   O115      0.64079      .   S
    Zr57   O115      0.64079      .   S
    Zr68   O116      0.98282      .   S
    Zr10   O116      0.98282      .   S
    Zr69   O117      0.98229      .   S
    Zr11   O117      0.98229      .   S
    Zr56   O118      0.98220      .   S
    Zr10   O118      0.98220      .   S
    Zr57   O119      0.98220      .   S
    Zr11   O119      0.98220      .   S
    Zr10   O120      0.98997      .   S
    Zr62   O120      0.98997      .   S
    Zr10   O121      0.98998      .   S
    Zr50   O121      0.98998      .   S
    Zr11   O122      0.98997      .   S
    Zr63   O122      0.98997      .   S
    Zr11   O123      0.98998      .   S
    Zr51   O123      0.98998      .   S
    Zr61   O124      0.64080      .   S
    Zr25   O124      0.64080      .   S
    Zr48   O125      0.64081      .   S
    Zr19   O125      0.64081      .   S
    Zr49   O126      0.64072      .   S
    Zr18   O126      0.64072  1_455   S
    Zr60   O127      0.64080      .   S
    Zr24   O127      0.64080      .   S
    Zr19   O128      0.63583      .   S
    Zr51   O128      0.63583      .   S
    Zr18   O129      0.63584      .   S
    Zr50   O129      0.63584      .   S
    Zr25   O130      0.63583      .   S
    Zr63   O130      0.63583      .   S
    Zr24   O131      0.63583      .   S
    Zr62   O131      0.63583      .   S
    Zr38   O132      0.63561      .   S
    Zr12   O132      0.63561      .   S
    Zr38   O133      0.99010      .   S
    Zr4    O133      0.99010      .   S
    Zr39   O134      0.63584      .   S
    Zr13   O134      0.63584      .   S
    Zr39   O135      0.99010      .   S
    Zr5    O135      0.99010      .   S
    Zr75   O136      0.63582      .   S
    Zr31   O136      0.63582      .   S
    Zr75   O137      0.98982      .   S
    Zr5    O137      0.98982      .   S
    Zr74   O138      0.63582      .   S
    Zr30   O138      0.63582      .   S
    Zr74   O139      0.98982      .   S
    Zr4    O139      0.98982      .   S
    Zr12   O140      0.64142  1_455   S
    Zr37   O140      0.64142      .   S
    Zr13   O141      0.64053      .   S
    Zr36   O141      0.64053      .   S
    Zr30   O142      0.64077      .   S
    Zr72   O142      0.64077      .   S
    Zr31   O143      0.64077      .   S
    Zr73   O143      0.64077      .   S
    Zr36   O144      0.98258      .   S
    Zr1    O144      0.98258      .   S
    Zr37   O145      0.98221      .   S
    Zr0    O145      0.98221  1_455   S
    Zr73   O146      0.98222      .   S
    Zr3    O146      0.98222      .   S
    Zr72   O147      0.98222      .   S
    Zr2    O147      0.98222      .   S
    Zr4    O148      0.98223      .   S
    Zr44   O148      0.98223      .   S
    Zr4    O149      0.98228      .   S
    Zr80   O149      0.98228      .   S
    Zr5    O150      0.98224      .   S
    Zr45   O150      0.98224      .   S
    Zr5    O151      0.98230      .   S
    Zr81   O151      0.98230      .   S
    Zr44   O152      0.64080      .   S
    Zr16   O152      0.64080      .   S
    Zr45   O153      0.64080      .   S
    Zr17   O153      0.64080      .   S
    Zr80   O154      0.64080      .   S
    Zr34   O154      0.64080      .   S
    Zr81   O155      0.64060      .   S
    Zr35   O155      0.64060      .   S
    Zr17   O156      0.63584      .   S
    Zr47   O156      0.63584      .   S
    Zr16   O157      0.63584      .   S
    Zr46   O157      0.63584      .   S
    Zr35   O158      0.63567      .   S
    Zr83   O158      0.63567      .   S
    Zr34   O159      0.63585      .   S
    Zr82   O159      0.63585      .   S
    Zr1    O160      0.98976      .   S
    Zr83   O160      0.98976      .   S
    Zr1    O161      0.99003      .   S
    Zr42   O161      0.99003      .   S
    Zr1    O162      0.98241      .   S
    Zr77   O162      0.98241      .   S
    Zr0    O163      0.99010      .   S
    Zr82   O163      0.99010      .   S
    Zr0    O164      0.98989  1_455   S
    Zr43   O164      0.98989      .   S
    Zr0    O165      0.98243      .   S
    Zr76   O165      0.98243      .   S
    Zr3    O166      0.98991      .   S
    Zr47   O166      0.98991      .   S
    Zr3    O167      0.99008      .   S
    Zr79   O167      0.99008      .   S
    Zr3    O168      0.98185      .   S
    Zr41   O168      0.98185      .   S
    Zr2    O169      0.98992      .   S
    Zr46   O169      0.98992      .   S
    Zr2    O170      0.99009      .   S
    Zr78   O170      0.99009      .   S
    Zr2    O171      0.98223      .   S
    Zr40   O171      0.98223      .   S
    Zr43   O172      0.63581      .   S
    Zr15   O172      0.63581      .   S
    Zr42   O173      0.63579      .   S
    Zr14   O173      0.63579      .   S
    Zr78   O174      0.63587      .   S
    Zr32   O174      0.63587      .   S
    Zr79   O175      0.63583      .   S
    Zr33   O175      0.63583      .   S
    Zr41   O176      0.64110      .   S
    Zr15   O176      0.64110      .   S
    Zr77   O177      0.64079      .   S
    Zr32   O177      0.64079      .   S
    Zr76   O178      0.64074      .   S
    Zr33   O178      0.64074  1_655   S
    Zr40   O179      0.64072      .   S
    Zr14   O179      0.64072      .   S
    N180   O181      2.33647      .   S
    Zr32   O181      3.07775      .   S
    N180   O182      2.33702  1_556   S
    Zr21   O182      3.07832      .   S
    N183   O184      2.33577      .   S
    Zr22   O184      3.07666      .   S
    N183   O185      2.33562  1_455   S
    Zr31   O185      3.07673      .   S
    N186   O187      2.33636  1_545   S
    Zr19   O187      3.07756      .   S
    N186   O188      2.33646      .   S
    Zr34   O188      3.07769      .   S
    N189   O190      2.33640      .   S
    Zr15   O190      3.07765      .   S
    N189   O191      2.33638  1_556   S
    Zr26   O191      3.07757      .   S
    N192   O193      2.33591      .   S
    Zr16   O193      3.07710      .   S
    N192   O194      2.33585  1_455   S
    Zr25   O194      3.07700      .   S
    N195   O196      2.33588      .   S
    Zr24   O196      3.07703      .   S
    N195   O197      2.33596      .   S
    Zr17   O197      3.07714      .   S
    N198   O199      2.33641      .   S
    Zr14   O199      3.07776      .   S
    N198   O200      2.33637  1_556   S
    Zr27   O200      3.07748  1_655   S
    N201   O202      2.33643      .   S
    Zr13   O202      3.07763      .   S
    N201   O203      2.33643  1_545   S
    Zr28   O203      3.07766      .   S
    N204   O205      2.33568      .   S
    Zr23   O205      3.07680      .   S
    N204   O206      2.33567      .   S
    Zr30   O206      3.07678      .   S
    N207   O208      2.33631  1_545   S
    Zr29   O208      3.07754      .   S
    N207   O209      2.33632      .   S
    Zr12   O209      3.07706  1_455   S
    N210   O211      2.33654      .   S
    Zr33   O211      3.07774  1_655   S
    N210   O212      2.33683  1_556   S
    Zr20   O212      3.07803      .   S
    N213   O214      2.33640  1_545   S
    Zr18   O214      3.07752  1_455   S
    N213   O215      2.33638      .   S
    Zr35   O215      3.07772      .   S
