# CIF file generated by openbabel 2.4.90, see http://openbabel.sf.net
data_I
_chemical_name_common ''
_cell_length_a 6.378
_cell_length_b 12.29
_cell_length_c 15.5126
_cell_angle_alpha 89.9841
_cell_angle_beta 78.4341
_cell_angle_gamma 89.976
_space_group_name_H-M_alt 'P 1'
_space_group_name_Hall 'P 1'
loop_
    _symmetry_equiv_pos_as_xyz
    x,y,z
loop_
    _atom_site_label
    _atom_site_type_symbol
    _atom_site_fract_x
    _atom_site_fract_y
    _atom_site_fract_z
    _atom_site_occupancy
    Ca0     Ca   0.29696   0.54761   0.44134   1.000
    Ca1     Ca   0.29689   0.95246   0.94134   1.000
    Ca2     Ca   0.70288   0.45253   0.55868   1.000
    H3      H    0.25045   0.29805   0.21264   1.000
    H4      H    0.49003   0.21076   0.23893   1.000
    H5      H    0.98537   0.39454   0.32606   1.000
    H6      H    0.74973   0.79842   0.28743   1.000
    H7      H    0.50985   0.71100   0.26174   1.000
    H8      H    0.01499   0.89461   0.17392   1.000
    H9      H    0.74969   0.70168   0.78780   1.000
    H10     H    0.50989   0.78902   0.76175   1.000
    H11     H    0.01469   0.60533   0.67424   1.000
    H12     H    0.25028   0.20192   0.71277   1.000
    H13     H    0.49015   0.28929   0.73850   1.000
    H14     H    0.98509   0.10571   0.82629   1.000
    C15     C    0.71540   0.31066   0.29180   1.000
    C16     C    0.01022   0.20062   0.16875   1.000
    C17     C    0.08137   0.27938   0.22088   1.000
    C18     C    0.65699   0.23210   0.23561   1.000
    C19     C    0.93284   0.33414   0.28372   1.000
    C20     C    0.55273   0.37367   0.35598   1.000
    C21     C    0.16734   0.13349   0.10416   1.000
    C22     C    0.28469   0.81056   0.20832   1.000
    C23     C    0.98974   0.70058   0.33125   1.000
    C24     C    0.91874   0.77948   0.27913   1.000
    C25     C    0.34292   0.73226   0.26479   1.000
    C26     C    0.06738   0.83408   0.21624   1.000
    C27     C    0.44731   0.87338   0.14401   1.000
    C28     C    0.83263   0.63354   0.39590   1.000
    C29     C    0.28473   0.68966   0.70826   1.000
    C30     C    0.98984   0.79964   0.83125   1.000
    C31     C    0.91871   0.72063   0.77933   1.000
    Ca32    Ca   0.70270   0.04745   0.05880   1.000
    C33     C    0.34296   0.76783   0.76478   1.000
    C34     C    0.06721   0.66597   0.71639   1.000
    C35     C    0.44725   0.62675   0.64396   1.000
    C36     C    0.83291   0.86671   0.89595   1.000
    C37     C    0.71532   0.18969   0.79188   1.000
    C38     C    0.01024   0.29967   0.66890   1.000
    C39     C    0.08126   0.22084   0.72107   1.000
    C40     C    0.65709   0.26800   0.73541   1.000
    C41     C    0.93265   0.16622   0.78397   1.000
    C42     C    0.55266   0.12673   0.85608   1.000
    C43     C    0.16727   0.36662   0.60413   1.000
    N44     N    0.79958   0.17769   0.17534   1.000
    N45     N    0.20011   0.67793   0.32502   1.000
    N46     N    0.20013   0.82215   0.82503   1.000
    N47     N    0.79985   0.32232   0.67515   1.000
    O48     O    0.08876   0.07773   0.04788   1.000
    O49     O    0.36020   0.13505   0.11152   1.000
    O50     O    0.38145   0.40353   0.33325   1.000
    O51     O    0.60032   0.39961   0.42951   1.000
    O52     O    0.91125   0.57766   0.45214   1.000
    O53     O    0.63975   0.63522   0.38860   1.000
    O54     O    0.61859   0.90338   0.16666   1.000
    O55     O    0.39942   0.89904   0.07047   1.000
    O56     O    0.91180   0.92243   0.95218   1.000
    O57     O    0.63997   0.86521   0.88872   1.000
    O58     O    0.61834   0.59645   0.66666   1.000
    O59     O    0.39939   0.60132   0.57038   1.000
    O60     O    0.08838   0.42231   0.54784   1.000
    O61     O    0.36023   0.36505   0.61136   1.000
    O62     O    0.38190   0.09640   0.83319   1.000
    O63     O    0.59990   0.10127   0.92978   1.000
loop_
    _geom_bond_atom_site_label_1
    _geom_bond_atom_site_label_2
    _geom_bond_distance
    _geom_bond_site_symmetry_2
    _ccdc_geom_bond_type
    O48    C21       1.28808      .   S
    Ca32   O54       2.42118  1_545   S
    Ca32   O63       2.32341  1_554   S
    O55    C27       1.27822      .   S
    O55    Ca1       2.32272  1_554   S
    C21    O49       1.25806      .   S
    C21    C16       1.51196      .   S
    C27    O54       1.26773      .   S
    C27    C22       1.50079      .   S
    C16    N44       1.35644  1_455   S
    C16    C17       1.39453      .   S
    H8     C26       1.08793      .   S
    N44    C18       1.34439      .   S
    C22    C26       1.39679      .   S
    C22    C25       1.40043      .   S
    H3     C17       1.08484      .   S
    C26    C24       1.38930  1_455   S
    C17    C19       1.38924  1_455   S
    C18    H4        1.08799      .   S
    C18    C15       1.40056      .   S
    H7     C25       1.08798      .   S
    C25    N45       1.34437      .   S
    C24    H6        1.08486      .   S
    C24    C23       1.39458      .   S
    C19    C15       1.39745      .   S
    C19    H5        1.08792      .   S
    C15    C20       1.50096      .   S
    N45    C23       1.35452  1_455   S
    C23    C28       1.51196      .   S
    O50    C20       1.26746      .   S
    O50    Ca0       2.42403      .   S
    C20    O51       1.27822      .   S
    O53    C28       1.25794      .   S
    C28    O52       1.28808      .   S
    O51    Ca2       2.32226      .   S
    Ca0    O59       2.32274      .   S
    O60    C43       1.28822      .   S
    Ca2    O58       2.42158      .   S
    O59    C35       1.27816      .   S
    C43    O61       1.25814      .   S
    C43    C38       1.51210      .   S
    C35    O58       1.26769      .   S
    C35    C29       1.50074      .   S
    C38    N47       1.35460  1_455   S
    C38    C39       1.39455      .   S
    H11    C34       1.08795      .   S
    N47    C40       1.34436      .   S
    C29    C34       1.39842      .   S
    C29    C33       1.40042      .   S
    H12    C39       1.08486      .   S
    C34    C31       1.38941  1_455   S
    C39    C41       1.38939  1_455   S
    C40    H13       1.08799      .   S
    C40    C37       1.40052      .   S
    H10    C33       1.08798      .   S
    C33    N46       1.34443      .   S
    C31    H9        1.08489      .   S
    C31    C30       1.39455      .   S
    C41    C37       1.39676      .   S
    C41    H14       1.08795      .   S
    C37    C42       1.50095      .   S
    N46    C30       1.35394  1_455   S
    C30    C36       1.51187      .   S
    O62    C42       1.26756      .   S
    O62    Ca1       2.42331  1_545   S
    C42    O63       1.27802      .   S
    O57    C36       1.25801      .   S
    C36    O56       1.28818      .   S
    O48    Ca32      2.46239  1_455   S
    O48    Ca1       2.44612  1_544   S
    O49    Ca32      2.42530      .   S
    O51    Ca0       2.63443      .   S
    O52    Ca0       2.45978  1_655   S
    O52    Ca2       2.44592      .   S
    O53    Ca0       2.42750      .   S
    O55    Ca32      2.63896  1_565   S
    O56    Ca32      2.44752  1_566   S
    O56    Ca1       2.45603  1_655   S
    O57    Ca1       2.42625      .   S
    O59    Ca2       2.64195      .   S
    O60    Ca0       2.44740      .   S
    O60    Ca2       2.45866  1_455   S
    O61    Ca2       2.42585      .   S
    O63    Ca1       2.64112  1_545   S
