# CIF file generated by openbabel 2.4.90, see http://openbabel.sf.net
data_I
_chemical_name_common ''
_cell_length_a 6.378
_cell_length_b 12.29
_cell_length_c 15.5126
_cell_angle_alpha 89.9841
_cell_angle_beta 78.4341
_cell_angle_gamma 89.976
_space_group_name_H-M_alt 'P 1'
_space_group_name_Hall 'P 1'
loop_
    _symmetry_equiv_pos_as_xyz
    x,y,z
loop_
    _atom_site_label
    _atom_site_type_symbol
    _atom_site_fract_x
    _atom_site_fract_y
    _atom_site_fract_z
    _atom_site_occupancy
    N0      N    0.12850   0.73605   0.76445   1.000
    N1      N    0.87149   0.23613   0.73575   1.000
    N2      N    0.87154   0.26407   0.23574   1.000
    N3      N    0.12847   0.76408   0.26437   1.000
    Zr4     Zr   0.70288   0.45253   0.55868   1.000
    O5      O    0.73222   0.39880   0.46180   1.000
    O6      O    0.83532   0.54606   0.47179   1.000
    O7      O    0.79872   0.54140   0.62362   1.000
    O8      O    0.52135   0.54201   0.61159   1.000
    Zr9     Zr   0.29689   0.95246   0.94134   1.000
    O10     O    0.16453   0.04602   0.02826   1.000
    O11     O    0.26760   0.89869   0.03824   1.000
    O12     O    0.47841   0.04198   0.88850   1.000
    O13     O    0.20116   0.04137   0.87643   1.000
    Zr14    Zr   0.29696   0.54761   0.44134   1.000
    O15     O    0.47852   0.45822   0.38846   1.000
    O16     O    0.20117   0.45871   0.37643   1.000
    O17     O    0.26765   0.60143   0.53825   1.000
    O18     O    0.16452   0.45408   0.52826   1.000
    Zr19    Zr   0.70270   0.04745   0.05880   1.000
    O20     O    0.79863   0.95860   0.12367   1.000
    O21     O    0.52123   0.95806   0.11165   1.000
    O22     O    0.83529   0.95398   0.97188   1.000
    O23     O    0.73205   0.10135   0.96191   1.000
    O24     O    0.25216   0.60908   0.39448   1.000
    O25     O    0.25217   0.89103   0.89451   1.000
    O26     O    0.74763   0.10897   0.10564   1.000
    O27     O    0.74771   0.39107   0.60557   1.000
loop_
    _geom_bond_atom_site_label_1
    _geom_bond_atom_site_label_2
    _geom_bond_distance
    _geom_bond_site_symmetry_2
    _ccdc_geom_bond_type
    Zr4    O5        1.61787      .   S
    N2     O5        3.81861      .   S
    Zr4    O6        1.84262      .   S
    N3     O6        4.31452  1_455   S
    Zr4    O7        1.68210      .   S
    N0     O7        4.09500  1_455   S
    Zr4    O8        1.68576      .   S
    N0     O8        3.89920      .   S
    Zr9    O10       1.84289  1_566   S
    N2     O10       4.31520  1_655   S
    Zr9    O11       1.61805  1_556   S
    N3     O11       3.81834      .   S
    Zr9    O12       1.68606  1_565   S
    N1     O12       3.90040      .   S
    Zr9    O13       1.68113  1_565   S
    N1     O13       4.09214  1_655   S
    Zr14   O15       1.68499      .   S
    N2     O15       3.89958      .   S
    Zr14   O16       1.68189      .   S
    N2     O16       4.09304  1_655   S
    Zr14   O17       1.61868      .   S
    N0     O17       3.81978      .   S
    Zr14   O18       1.84284      .   S
    N1     O18       4.31456  1_655   S
    Zr19   O20       1.68091  1_545   S
    N3     O20       4.09135  1_455   S
    Zr19   O21       1.68492  1_545   S
    N3     O21       3.89792      .   S
    Zr19   O22       1.84274  1_544   S
    N0     O22       4.31425  1_455   S
    Zr19   O23       1.61850  1_554   S
    N1     O23       3.81963      .   S
    N3     O24       2.99321      .   S
    Zr14   O24       1.12415      .   S
    Zr9    O25       1.12378      .   S
    N0     O25       2.99369      .   S
    N2     O26       2.99552      .   S
    Zr19   O26       1.12513      .   S
    N1     O27       2.99395      .   S
    Zr4    O27       1.12427      .   S
