# CIF file generated by openbabel 2.4.90, see http://openbabel.sf.net
data_I
_chemical_name_common ''
_cell_length_a 6.378
_cell_length_b 12.29
_cell_length_c 15.5126
_cell_angle_alpha 89.9841
_cell_angle_beta 78.4341
_cell_angle_gamma 89.976
_space_group_name_H-M_alt 'P 1'
_space_group_name_Hall 'P 1'
loop_
    _symmetry_equiv_pos_as_xyz
    x,y,z
loop_
    _atom_site_label
    _atom_site_type_symbol
    _atom_site_fract_x
    _atom_site_fract_y
    _atom_site_fract_z
    _atom_site_occupancy
    N0      N    0.12850   0.73605   0.76445   1.000
    N1      N    0.87149   0.23613   0.73575   1.000
    N2      N    0.87154   0.26407   0.23574   1.000
    N3      N    0.12847   0.76408   0.26437   1.000
    Zr4     Zr   0.70288   0.45253   0.55868   1.000
    O5      O    0.73222   0.39880   0.46180   1.000
    O6      O    0.83532   0.54606   0.47179   1.000
    O7      O    0.79872   0.54140   0.62362   1.000
    O8      O    0.52135   0.54201   0.61159   1.000
    O9      O    0.79322   0.39465   0.60160   1.000
    O10     O    0.70220   0.38749   0.60954   1.000
    Zr11    Zr   0.29689   0.95246   0.94134   1.000
    O12     O    0.16453   0.04602   0.02826   1.000
    O13     O    0.29768   0.88745   0.89054   1.000
    O14     O    0.26760   0.89869   0.03824   1.000
    O15     O    0.20666   0.89461   0.89847   1.000
    O16     O    0.47841   0.04198   0.88850   1.000
    O17     O    0.20116   0.04137   0.87643   1.000
    Zr18    Zr   0.29696   0.54761   0.44134   1.000
    O19     O    0.47852   0.45822   0.38846   1.000
    O20     O    0.20117   0.45871   0.37643   1.000
    O21     O    0.29769   0.61268   0.39051   1.000
    O22     O    0.20662   0.60548   0.39845   1.000
    O23     O    0.26765   0.60143   0.53825   1.000
    O24     O    0.16452   0.45408   0.52826   1.000
    Zr25    Zr   0.70270   0.04745   0.05880   1.000
    O26     O    0.79317   0.10539   0.10167   1.000
    O27     O    0.70210   0.11256   0.10962   1.000
    O28     O    0.79863   0.95860   0.12367   1.000
    O29     O    0.52123   0.95806   0.11165   1.000
    O30     O    0.83529   0.95398   0.97188   1.000
    O31     O    0.73205   0.10135   0.96191   1.000
loop_
    _geom_bond_atom_site_label_1
    _geom_bond_atom_site_label_2
    _geom_bond_distance
    _geom_bond_site_symmetry_2
    _ccdc_geom_bond_type
    Zr4    O5        1.61787      .   S
    N2     O5        3.81861      .   S
    Zr4    O6        1.84262      .   S
    N3     O6        4.31452  1_455   S
    Zr4    O7        1.68210      .   S
    N0     O7        4.09500  1_455   S
    Zr4    O8        1.68576      .   S
    N0     O8        3.89920      .   S
    Zr4    O9        1.19760      .   S
    N1     O9        2.96466      .   S
    Zr4    O10       1.12222      .   S
    N1     O10       3.05022      .   S
    Zr11   O12       1.84289  1_566   S
    N2     O12       4.31520  1_655   S
    Zr11   O13       1.12170      .   S
    N0     O13       3.05006      .   S
    Zr11   O14       1.61805  1_556   S
    N3     O14       3.81834      .   S
    Zr11   O15       1.19715      .   S
    N0     O15       2.96430      .   S
    Zr11   O16       1.68606  1_565   S
    N1     O16       3.90040      .   S
    Zr11   O17       1.68113  1_565   S
    N1     O17       4.09214  1_655   S
    Zr18   O19       1.68499      .   S
    N2     O19       3.89958      .   S
    Zr18   O20       1.68189      .   S
    N2     O20       4.09304  1_655   S
    Zr18   O21       1.12230      .   S
    N3     O21       3.04935      .   S
    Zr18   O22       1.19737      .   S
    N3     O22       2.96411      .   S
    Zr18   O23       1.61868      .   S
    N0     O23       3.81978      .   S
    Zr18   O24       1.84284      .   S
    N1     O24       4.31456  1_655   S
    Zr25   O26       1.19861      .   S
    N2     O26       2.96617      .   S
    Zr25   O27       1.12292      .   S
    N2     O27       3.05188      .   S
    Zr25   O28       1.68091  1_545   S
    N3     O28       4.09135  1_455   S
    Zr25   O29       1.68492  1_545   S
    N3     O29       3.89792      .   S
    Zr25   O30       1.84274  1_544   S
    N0     O30       4.31425  1_455   S
    Zr25   O31       1.61850  1_554   S
    N1     O31       3.81963      .   S
