# CIF file generated by openbabel 2.4.90, see http://openbabel.sf.net
data_I
_chemical_name_common ''
_cell_length_a 13.968
_cell_length_b 15.512
_cell_length_c 19.523
_cell_angle_alpha 90
_cell_angle_beta 102.061
_cell_angle_gamma 90
_space_group_name_H-M_alt 'P 1'
_space_group_name_Hall 'P 1'
loop_
    _symmetry_equiv_pos_as_xyz
    x,y,z
loop_
    _atom_site_label
    _atom_site_type_symbol
    _atom_site_fract_x
    _atom_site_fract_y
    _atom_site_fract_z
    _atom_site_occupancy
    Cd0     Cd   0.99995   0.99999   0.49997   1.000
    Cd1     Cd   0.99994   0.49999   0.99998   1.000
    Cd2     Cd   0.99994   0.50000   0.49997   1.000
    Cd3     Cd   0.49995   0.99999   0.99999   1.000
    Cd4     Cd   0.49995   0.00000   0.49998   1.000
    Cd5     Cd   0.49995   0.49999   0.49998   1.000
    Cd6     Cd   0.49995   0.50001   0.99999   1.000
    Ni7     Ni   0.24957   0.25000   0.99989   1.000
    Ni8     Ni   0.24954   0.25000   0.49980   1.000
    Ni9     Ni   0.24955   0.74999   0.99987   1.000
    Ni10    Ni   0.24956   0.75000   0.49988   1.000
    Ni11    Ni   0.75027   0.24999   0.00000   1.000
    Ni12    Ni   0.75030   0.25000   0.50006   1.000
    Ni13    Ni   0.75025   0.75000   0.50005   1.000
    Cd14    Cd   0.99994   0.00000   0.99998   1.000
    C15     C    0.33051   0.33431   0.47705   1.000
    C16     C    0.33054   0.33431   0.97705   1.000
    C17     C    0.33052   0.83431   0.47700   1.000
    C18     C    0.33052   0.83430   0.97704   1.000
    C19     C    0.83104   0.33431   0.47706   1.000
    C20     C    0.83102   0.33431   0.97705   1.000
    C21     C    0.83101   0.83431   0.47706   1.000
    C22     C    0.16884   0.33431   0.02289   1.000
    C23     C    0.16881   0.33431   0.52288   1.000
    C24     C    0.16882   0.83432   0.02289   1.000
    C25     C    0.16884   0.83432   0.52289   1.000
    C26     C    0.66933   0.33432   0.02291   1.000
    C27     C    0.66936   0.33431   0.52291   1.000
    C28     C    0.66932   0.83431   0.52290   1.000
    C29     C    0.16884   0.16568   0.02289   1.000
    C30     C    0.16883   0.16568   0.52289   1.000
    C31     C    0.16881   0.66568   0.02289   1.000
    C32     C    0.16883   0.66568   0.52289   1.000
    C33     C    0.66934   0.16568   0.02292   1.000
    C34     C    0.66936   0.16568   0.52291   1.000
    C35     C    0.66932   0.66568   0.52291   1.000
    C36     C    0.33052   0.16569   0.47705   1.000
    C37     C    0.33054   0.16568   0.97704   1.000
    C38     C    0.33052   0.66568   0.47705   1.000
    C39     C    0.33052   0.66568   0.97704   1.000
    C40     C    0.83104   0.16568   0.47706   1.000
    C41     C    0.83103   0.16568   0.97700   1.000
    C42     C    0.83100   0.66568   0.47706   1.000
    Ts43    Ts   0.96057   0.96303   0.48768   1.000
    Ts44    Ts   0.03932   0.96303   0.51227   1.000
    Ts45    Ts   0.03932   0.03695   0.51227   1.000
    Ts46    Ts   0.96058   0.03695   0.48768   1.000
    Ts47    Ts   0.98955   0.99999   0.53788   1.000
    Ts48    Ts   0.01036   0.99999   0.46204   1.000
    Ts49    Ts   0.96057   0.46303   0.98768   1.000
    Ts50    Ts   0.03932   0.46304   0.01228   1.000
    Ts51    Ts   0.03931   0.53695   0.01228   1.000
    Ts52    Ts   0.96057   0.53695   0.98768   1.000
    Ts53    Ts   0.98955   0.49999   0.03791   1.000
    Ts54    Ts   0.01036   0.49999   0.96205   1.000
    Ts55    Ts   0.96057   0.46304   0.48767   1.000
    Ts56    Ts   0.03932   0.46305   0.51227   1.000
    Ts57    Ts   0.03931   0.53696   0.51227   1.000
    Ts58    Ts   0.96057   0.53696   0.48768   1.000
    Ts59    Ts   0.98955   0.50000   0.53790   1.000
    Ts60    Ts   0.01036   0.50000   0.46204   1.000
    Ts61    Ts   0.48960   1.00000   0.03792   1.000
    Ts62    Ts   0.46050   0.96301   0.98777   1.000
    Ts63    Ts   0.53940   0.96302   0.01221   1.000
    Ts64    Ts   0.53940   0.03697   0.01221   1.000
    Ts65    Ts   0.46050   0.03697   0.98776   1.000
    Ts66    Ts   0.51032   0.99999   0.96205   1.000
    Ts67    Ts   0.48961   0.00000   0.53789   1.000
    Ts68    Ts   0.46050   0.96302   0.48776   1.000
    Ts69    Ts   0.53940   0.96303   0.51219   1.000
    Ts70    Ts   0.53941   0.03698   0.51219   1.000
    Ts71    Ts   0.46050   0.03698   0.48776   1.000
    Ts72    Ts   0.51032   0.00000   0.46205   1.000
    Ts73    Ts   0.48960   0.49999   0.53792   1.000
    Ts74    Ts   0.46049   0.46301   0.48776   1.000
    Ts75    Ts   0.53940   0.46301   0.51219   1.000
    Ts76    Ts   0.53940   0.53697   0.51220   1.000
    Ts77    Ts   0.46049   0.53697   0.48776   1.000
    Ts78    Ts   0.51031   0.49999   0.46205   1.000
    Ts79    Ts   0.48960   0.50000   0.03792   1.000
    Ts80    Ts   0.46050   0.46302   0.98776   1.000
    Ts81    Ts   0.53940   0.46303   0.01221   1.000
    Ts82    Ts   0.53940   0.53698   0.01221   1.000
    Ts83    Ts   0.46049   0.53698   0.98777   1.000
    Ts84    Ts   0.51031   0.50000   0.96205   1.000
    Ts85    Ts   0.98955   0.00000   0.03791   1.000
    Ts86    Ts   0.96058   0.96304   0.98768   1.000
    Ts87    Ts   0.03932   0.96305   0.01228   1.000
    Ts88    Ts   0.03932   0.03696   0.01228   1.000
    Ts89    Ts   0.96057   0.03696   0.98768   1.000
    Ts90    Ts   0.01036   0.00000   0.96205   1.000
    Ts91    Ts   0.34753   0.35256   0.47248   1.000
    Ts92    Ts   0.34756   0.35256   0.97247   1.000
    Ts93    Ts   0.34754   0.85256   0.47244   1.000
    Ts94    Ts   0.34755   0.85255   0.97247   1.000
    Ts95    Ts   0.84797   0.35258   0.47240   1.000
    Ts96    Ts   0.84796   0.35257   0.97239   1.000
    Ts97    Ts   0.84795   0.85257   0.47241   1.000
    Ts98    Ts   0.15192   0.35258   0.02755   1.000
    Ts99    Ts   0.15190   0.35258   0.52755   1.000
    Ts100   Ts   0.15190   0.85259   0.02756   1.000
    Ts101   Ts   0.15191   0.85258   0.52755   1.000
    Ts102   Ts   0.65232   0.35257   0.02749   1.000
    Ts103   Ts   0.65234   0.35256   0.52747   1.000
    Ts104   Ts   0.65232   0.85257   0.52747   1.000
    Ts105   Ts   0.15192   0.14741   0.02755   1.000
    Ts106   Ts   0.15190   0.14741   0.52755   1.000
    Ts107   Ts   0.15189   0.64741   0.02755   1.000
    Ts108   Ts   0.15190   0.64741   0.52755   1.000
    Ts109   Ts   0.65233   0.14743   0.02750   1.000
    Ts110   Ts   0.65235   0.14743   0.52747   1.000
    Ts111   Ts   0.65231   0.64743   0.52749   1.000
    Ts112   Ts   0.34754   0.14744   0.47248   1.000
    Ts113   Ts   0.34756   0.14743   0.97246   1.000
    Ts114   Ts   0.34754   0.64743   0.47248   1.000
    Ts115   Ts   0.34754   0.64743   0.97247   1.000
    Ts116   Ts   0.84797   0.14741   0.47240   1.000
    Ts117   Ts   0.84796   0.14742   0.97236   1.000
    Ts118   Ts   0.84794   0.64742   0.47240   1.000
loop_
    _geom_bond_atom_site_label_1
    _geom_bond_atom_site_label_2
    _geom_bond_distance
    _geom_bond_site_symmetry_2
    _ccdc_geom_bond_type
    Ni11   C26       1.84404      .   S
    Ni11   C33       1.84392      .   S
    Ni11   C41       1.84286  1_554   S
    Ni11   C20       1.84248  1_554   S
    C31    Ni9       1.84285  1_554   S
    C22    Ni7       1.84266  1_554   S
    C29    Ni7       1.84267  1_554   S
    C24    Ni9       1.84293  1_554   S
    C17    Ni10      1.84393      .   S
    C36    Ni8       1.84306      .   S
    C15    Ni8       1.84303      .   S
    C38    Ni10      1.84358      .   S
    C19    Ni12      1.84278      .   S
    C21    Ni13      1.84284      .   S
    C42    Ni13      1.84281      .   S
    C40    Ni12      1.84281      .   S
    Ni8    C23       1.84324      .   S
    Ni8    C30       1.84325      .   S
    Ni10   C25       1.84269      .   S
    Ni10   C32       1.84272      .   S
    Ni13   C28       1.84339      .   S
    Ni13   C35       1.84345      .   S
    Ni12   C27       1.84351      .   S
    Ni12   C34       1.84347      .   S
    C18    Ni9       1.84359      .   S
    C39    Ni9       1.84360      .   S
    C37    Ni7       1.84385      .   S
    C16    Ni7       1.84370      .   S
    Cd0    Ts43      0.79603      .   S
    Cd0    Ts44      0.79597  1_655   S
    Cd0    Ts45      0.79598  1_665   S
    Cd0    Ts46      0.79601  1_565   S
    Cd0    Ts47      0.78344      .   S
    Cd0    Ts48      0.78386  1_655   S
    Cd1    Ts49      0.79602      .   S
    Cd1    Ts50      0.79599  1_656   S
    Cd1    Ts51      0.79597  1_656   S
    Cd1    Ts52      0.79599      .   S
    Cd1    Ts53      0.78388  1_556   S
    Cd1    Ts54      0.78400  1_655   S
    Cd2    Ts55      0.79601      .   S
    Cd2    Ts56      0.79599  1_655   S
    Cd2    Ts57      0.79597  1_655   S
    Cd2    Ts58      0.79603      .   S
    Cd2    Ts59      0.78389      .   S
    Cd2    Ts60      0.78386  1_655   S
    Cd3    Ts61      0.78362  1_556   S
    Cd3    Ts62      0.79671      .   S
    Cd3    Ts63      0.79665  1_556   S
    Cd3    Ts64      0.79665  1_566   S
    Cd3    Ts65      0.79668  1_565   S
    Cd3    Ts66      0.78379      .   S
    Cd4    Ts67      0.78310      .   S
    Cd4    Ts68      0.79673  1_545   S
    Cd4    Ts69      0.79660  1_545   S
    Cd4    Ts70      0.79662      .   S
    Cd4    Ts71      0.79670      .   S
    Cd4    Ts72      0.78372      .   S
    Cd5    Ts73      0.78367      .   S
    Cd5    Ts74      0.79669      .   S
    Cd5    Ts75      0.79663      .   S
    Cd5    Ts76      0.79665      .   S
    Cd5    Ts77      0.79672      .   S
    Cd5    Ts78      0.78372      .   S
    Cd6    Ts79      0.78362  1_556   S
    Cd6    Ts80      0.79671      .   S
    Cd6    Ts81      0.79667  1_556   S
    Cd6    Ts82      0.79666  1_556   S
    Cd6    Ts83      0.79666      .   S
    Cd6    Ts84      0.78380      .   S
    Cd14   Ts85      0.78389  1_556   S
    Cd14   Ts86      0.79604  1_545   S
    Cd14   Ts87      0.79598  1_646   S
    Cd14   Ts88      0.79598  1_656   S
    Cd14   Ts89      0.79597      .   S
    Cd14   Ts90      0.78400  1_655   S
    C15    Ts91      0.39179      .   S
    C16    Ts92      0.39185      .   S
    C17    Ts93      0.39168      .   S
    C18    Ts94      0.39178      .   S
    C19    Ts95      0.39178      .   S
    C20    Ts96      0.39177      .   S
    C21    Ts97      0.39177      .   S
    C22    Ts98      0.39178      .   S
    C23    Ts99      0.39177      .   S
    C24    Ts100     0.39178      .   S
    C25    Ts101     0.39176      .   S
    C26    Ts102     0.39179      .   S
    C27    Ts103     0.39166      .   S
    C28    Ts104     0.39166      .   S
    C29    Ts105     0.39178      .   S
    C30    Ts106     0.39177      .   S
    C31    Ts107     0.39175      .   S
    C32    Ts108     0.39175      .   S
    C33    Ts109     0.39178      .   S
    C34    Ts110     0.39168      .   S
    C35    Ts111     0.39177      .   S
    C36    Ts112     0.39179      .   S
    C37    Ts113     0.39183      .   S
    C38    Ts114     0.39179      .   S
    C39    Ts115     0.39177      .   S
    C40    Ts116     0.39175      .   S
    C41    Ts117     0.39164      .   S
    C42    Ts118     0.39178      .   S
