# CIF file generated by openbabel 2.4.90, see http://openbabel.sf.net
data_I
_chemical_name_common ''
_cell_length_a 13.968
_cell_length_b 15.512
_cell_length_c 19.523
_cell_angle_alpha 90
_cell_angle_beta 102.061
_cell_angle_gamma 90
_space_group_name_H-M_alt 'P 1'
_space_group_name_Hall 'P 1'
loop_
    _symmetry_equiv_pos_as_xyz
    x,y,z
loop_
    _atom_site_label
    _atom_site_type_symbol
    _atom_site_fract_x
    _atom_site_fract_y
    _atom_site_fract_z
    _atom_site_occupancy
    N0      N    0.74992   0.50000   0.25000   1.000
    N1      N    0.25004   0.49999   0.74996   1.000
    N2      N    0.74993   0.49999   0.74999   1.000
    N3      N    0.74993   0.99999   0.74999   1.000
    N4      N    0.25004   0.50000   0.24998   1.000
    N5      N    0.25004   0.99999   0.74997   1.000
    N6      N    0.74993   1.00000   0.25000   1.000
    N7      N    0.25004   1.00000   0.24998   1.000
    N8      N    0.85644   0.86171   0.97006   1.000
    N9      N    0.64383   0.86169   0.02979   1.000
    N10     N    0.85643   0.63828   0.97004   1.000
    N11     N    0.61830   0.88907   0.53660   1.000
    N12     N    0.11807   0.11087   0.03688   1.000
    N13     N    0.11806   0.61088   0.53688   1.000
    N14     N    0.61831   0.11092   0.03666   1.000
    N15     N    0.11805   0.61087   0.03688   1.000
    N16     N    0.11806   0.11086   0.53688   1.000
    N17     N    0.38160   0.38906   0.96330   1.000
    N18     N    0.38159   0.61094   0.96333   1.000
    N19     N    0.38161   0.11093   0.96330   1.000
    N20     N    0.38158   0.61093   0.46333   1.000
    N21     N    0.64382   0.63831   0.02978   1.000
    N22     N    0.11806   0.38912   0.03688   1.000
    N23     N    0.88183   0.11088   0.46309   1.000
    N24     N    0.61832   0.11093   0.53660   1.000
    N25     N    0.11806   0.38913   0.53688   1.000
    N26     N    0.11806   0.88913   0.03689   1.000
    N27     N    0.61830   0.61092   0.53665   1.000
    N28     N    0.38159   0.88905   0.46333   1.000
    N29     N    0.38160   0.88905   0.96333   1.000
    N30     N    0.38159   0.11094   0.46333   1.000
    N31     N    0.88183   0.38910   0.96308   1.000
    N32     N    0.88182   0.88910   0.46310   1.000
    N33     N    0.88183   0.38912   0.46308   1.000
    N34     N    0.88183   0.11088   0.96309   1.000
    N35     N    0.88181   0.61089   0.46309   1.000
    N36     N    0.38158   0.38905   0.46333   1.000
    N37     N    0.11806   0.88912   0.53688   1.000
    N38     N    0.61831   0.38907   0.03666   1.000
    N39     N    0.61832   0.38906   0.53660   1.000
    Zr40    Zr   0.49995   0.49999   0.49998   1.000
    O41     O    0.54433   0.54159   0.51373   1.000
    O42     O    0.54434   0.45839   0.51371   1.000
    O43     O    0.43359   0.49999   0.57670   1.000
    O44     O    0.56633   0.49999   0.42326   1.000
    O45     O    0.45556   0.54159   0.48624   1.000
    O46     O    0.45556   0.45839   0.48624   1.000
    Zr47    Zr   0.24965   0.75000   0.99995   1.000
    O48     O    0.30924   0.81268   0.98335   1.000
    O49     O    0.19019   0.68728   0.01666   1.000
    O50     O    0.30923   0.68731   0.98335   1.000
    O51     O    0.19020   0.81271   0.01667   1.000
    Zr52    Zr   0.24967   0.25000   0.99995   1.000
    O53     O    0.30925   0.31268   0.98334   1.000
    O54     O    0.30925   0.18731   0.98334   1.000
    O55     O    0.19021   0.31271   0.01667   1.000
    O56     O    0.19021   0.18729   0.01667   1.000
    Zr57    Zr   0.24964   0.25000   0.49993   1.000
    O58     O    0.30923   0.31268   0.48335   1.000
    O59     O    0.30923   0.18731   0.48335   1.000
    O60     O    0.19020   0.18728   0.51666   1.000
    O61     O    0.19019   0.31271   0.51666   1.000
    Zr62    Zr   0.75018   0.75000   0.50000   1.000
    O63     O    0.80965   0.81270   0.48329   1.000
    O64     O    0.69062   0.81269   0.51659   1.000
    O65     O    0.69062   0.68730   0.51661   1.000
    O66     O    0.80965   0.68729   0.48329   1.000
    Zr67    Zr   0.75022   0.25000   0.50000   1.000
    O68     O    0.69065   0.18731   0.51659   1.000
    O69     O    0.80968   0.31271   0.48329   1.000
    O70     O    0.69065   0.31269   0.51659   1.000
    O71     O    0.80968   0.18729   0.48329   1.000
    Zr72    Zr   0.24965   0.75000   0.49994   1.000
    O73     O    0.30924   0.81268   0.48334   1.000
    O74     O    0.19020   0.68729   0.51666   1.000
    O75     O    0.19021   0.81271   0.51666   1.000
    O76     O    0.30923   0.68731   0.48335   1.000
    Zr77    Zr   0.75020   0.25000   0.99998   1.000
    O78     O    0.80966   0.18729   0.98327   1.000
    O79     O    0.80966   0.31270   0.98327   1.000
    O80     O    0.69063   0.31269   0.01660   1.000
    O81     O    0.69063   0.18731   0.01660   1.000
    Zr82    Zr   0.49995   0.00000   0.49998   1.000
    O83     O    0.54433   0.95840   0.51371   1.000
    O84     O    0.54434   0.04160   0.51371   1.000
    O85     O    0.45556   0.04161   0.48624   1.000
    O86     O    0.45556   0.95840   0.48624   1.000
    O87     O    0.56633   0.00000   0.42326   1.000
    O88     O    0.43359   0.00000   0.57669   1.000
    Zr89    Zr   0.99994   0.50000   0.49997   1.000
    O90     O    0.04424   0.54158   0.51381   1.000
    O91     O    0.95565   0.45842   0.48614   1.000
    O92     O    0.04424   0.45843   0.51381   1.000
    O93     O    0.06637   0.50000   0.42325   1.000
    O94     O    0.95564   0.54158   0.48614   1.000
    O95     O    0.93354   0.50000   0.57670   1.000
    Zr96    Zr   0.99994   0.49999   0.99998   1.000
    O97     O    0.94930   0.54842   0.98788   1.000
    O98     O    0.04423   0.54157   0.01382   1.000
    O99     O    0.04424   0.45842   0.01382   1.000
    O100    O    0.95565   0.45841   0.98614   1.000
    O101    O    0.93354   0.49999   0.07671   1.000
    O102    O    0.06637   0.49999   0.92325   1.000
    Zr103   Zr   0.49995   0.99999   0.99999   1.000
    O104    O    0.45557   0.04160   0.98623   1.000
    O105    O    0.56633   0.99999   0.92326   1.000
    O106    O    0.55072   0.95155   0.01202   1.000
    O107    O    0.45557   0.95839   0.98624   1.000
    O108    O    0.54433   0.04159   0.01374   1.000
    O109    O    0.43359   1.00000   0.07671   1.000
    Zr110   Zr   0.99994   0.00000   0.99998   1.000
    O111    O    0.94930   0.95157   0.98789   1.000
    O112    O    0.95565   0.04158   0.98615   1.000
    O113    O    0.04424   0.04158   0.01382   1.000
    O114    O    0.04424   0.95843   0.01382   1.000
    O115    O    0.06638   0.00000   0.92325   1.000
    O116    O    0.93354   0.00000   0.07671   1.000
    Zr117   Zr   0.49995   0.50001   0.99999   1.000
    O118    O    0.45556   0.54160   0.98624   1.000
    O119    O    0.56633   0.50000   0.92326   1.000
    O120    O    0.55071   0.54845   0.01202   1.000
    O121    O    0.54433   0.45841   0.01374   1.000
    O122    O    0.43359   0.50000   0.07671   1.000
    O123    O    0.45557   0.45840   0.98623   1.000
    Zr124   Zr   0.99995   0.99999   0.49997   1.000
    O125    O    0.95566   0.04157   0.48614   1.000
    O126    O    0.04424   0.04157   0.51381   1.000
    O127    O    0.95565   0.95841   0.48614   1.000
    O128    O    0.04424   0.95841   0.51381   1.000
    O129    O    0.06638   0.99999   0.42325   1.000
    O130    O    0.93354   0.99999   0.57669   1.000
    Zr131   Zr   0.75028   0.75000   0.70000   1.000
loop_
    _geom_bond_atom_site_label_1
    _geom_bond_atom_site_label_2
    _geom_bond_distance
    _geom_bond_site_symmetry_2
    _ccdc_geom_bond_type
    Zr40   O41       0.89623      .   S
    N27    O41       1.49371      .   S
    Zr40   O42       0.89621      .   S
    N39    O42       1.49368      .   S
    Zr40   O43       1.91906      .   S
    N1     O43       4.65181      .   S
    Zr40   O44       1.91925      .   S
    N0     O44       4.65223      .   S
    Zr40   O45       0.89631      .   S
    N20    O45       1.49385      .   S
    Zr40   O46       0.89627      .   S
    N36    O46       1.49379      .   S
    Zr47   O48       1.36232      .   S
    N29    O48       1.65613      .   S
    Zr47   O49       1.36224  1_556   S
    N15    O49       1.65603      .   S
    Zr47   O50       1.36233      .   S
    N18    O50       1.65613      .   S
    Zr47   O51       1.36229  1_556   S
    N26    O51       1.65610      .   S
    Zr52   O53       1.36240      .   S
    N17    O53       1.65626      .   S
    Zr52   O54       1.36244      .   S
    N19    O54       1.65629      .   S
    Zr52   O55       1.36224  1_556   S
    N22    O55       1.65605      .   S
    Zr52   O56       1.36223  1_556   S
    N12    O56       1.65604      .   S
    Zr57   O58       1.36224      .   S
    N36    O58       1.65606      .   S
    Zr57   O59       1.36225      .   S
    N30    O59       1.65607      .   S
    Zr57   O60       1.36226      .   S
    N16    O60       1.65606      .   S
    Zr57   O61       1.36225      .   S
    N25    O61       1.65606      .   S
    Zr62   O63       1.36220      .   S
    N32    O63       1.65600      .   S
    Zr62   O64       1.36214      .   S
    N11    O64       1.65586      .   S
    Zr62   O65       1.36229      .   S
    N27    O65       1.65610      .   S
    Zr62   O66       1.36221      .   S
    N35    O66       1.65602      .   S
    Zr67   O68       1.36217      .   S
    N24    O68       1.65590      .   S
    Zr67   O69       1.36222      .   S
    N33    O69       1.65603      .   S
    Zr67   O70       1.36217      .   S
    N39    O70       1.65589      .   S
    Zr67   O71       1.36220      .   S
    N23    O71       1.65599      .   S
    Zr72   O73       1.36232      .   S
    N28    O73       1.65605      .   S
    Zr72   O74       1.36223      .   S
    N13    O74       1.65603      .   S
    Zr72   O75       1.36222      .   S
    N37    O75       1.65602      .   S
    Zr72   O76       1.36227      .   S
    N20    O76       1.65609      .   S
    Zr77   O78       1.36222      .   S
    N34    O78       1.65592      .   S
    Zr77   O79       1.36216      .   S
    N31    O79       1.65597      .   S
    Zr77   O80       1.36245  1_556   S
    N38    O80       1.65626      .   S
    Zr77   O81       1.36241  1_556   S
    N14    O81       1.65622      .   S
    Zr82   O83       0.89617  1_545   S
    N11    O83       1.49362      .   S
    Zr82   O84       0.89620      .   S
    N24    O84       1.49366      .   S
    Zr82   O85       0.89629      .   S
    N30    O85       1.49382      .   S
    Zr82   O86       0.89632  1_545   S
    N28    O86       1.49387      .   S
    Zr82   O87       1.91926      .   S
    N6     O87       4.65225  1_565   S
    Zr82   O88       1.91888      .   S
    N5     O88       4.65203  1_565   S
    Zr89   O90       0.89547  1_655   S
    N13    O90       1.49244      .   S
    Zr89   O91       0.89552      .   S
    N33    O91       1.49253      .   S
    Zr89   O92       0.89549  1_655   S
    N25    O92       1.49249      .   S
    Zr89   O93       1.91971  1_655   S
    N4     O93       4.65314      .   S
    Zr89   O94       0.89554      .   S
    N35    O94       1.49257      .   S
    Zr89   O95       1.91964      .   S
    N2     O95       4.65296      .   S
    Zr96   O97       1.02504      .   S
    N10    O97       1.88621      .   S
    Zr96   O98       0.89547  1_656   S
    N15    O98       1.49245      .   S
    Zr96   O99       0.89549  1_656   S
    N22    O99       1.49248      .   S
    Zr96   O100      0.89552      .   S
    N31    O100      1.49254      .   S
    Zr96   O101      1.91962  1_556   S
    N0     O101      4.65291      .   S
    Zr96   O102      1.91986  1_655   S
    N1     O102      4.65340      .   S
    Zr103  O104      0.89626  1_565   S
    N19    O104      1.49377      .   S
    Zr103  O105      1.91937      .   S
    N3     O105      4.65247      .   S
    Zr103  O106      1.02616  1_556   S
    N9     O106      1.88850      .   S
    Zr103  O107      0.89630      .   S
    N29    O107      1.49383      .   S
    Zr103  O108      0.89623  1_566   S
    N14    O108      1.49372      .   S
    Zr103  O109      1.91907  1_556   S
    N7     O109      4.65192      .   S
    Zr110  O111      1.02509  1_545   S
    N8     O111      1.88630      .   S
    Zr110  O112      0.89547      .   S
    N34    O112      1.49245      .   S
    Zr110  O113      0.89547  1_656   S
    N12    O113      1.49246      .   S
    Zr110  O114      0.89548  1_646   S
    N26    O114      1.49246      .   S
    Zr110  O115      1.91985  1_655   S
    N5     O115      4.65336  1_565   S
    Zr110  O116      1.91961  1_556   S
    N6     O116      4.65289  1_565   S
    Zr117  O118      0.89624      .   S
    N18    O118      1.49373      .   S
    Zr117  O119      1.91935      .   S
    N2     O119      4.65242      .   S
    Zr117  O120      1.02616  1_556   S
    N21    O120      1.88848      .   S
    Zr117  O121      0.89626  1_556   S
    N38    O121      1.49376      .   S
    Zr117  O122      1.91905  1_556   S
    N4     O122      4.65186      .   S
    Zr117  O123      0.89630      .   S
    N17    O123      1.49383      .   S
    Zr124  O125      0.89552  1_565   S
    N23    O125      1.49253      .   S
    Zr124  O126      0.89547  1_665   S
    N16    O126      1.49245      .   S
    Zr124  O127      0.89554      .   S
    N32    O127      1.49256      .   S
    Zr124  O128      0.89546  1_655   S
    N37    O128      1.49244      .   S
    Zr124  O129      1.91968  1_655   S
    N7     O129      4.65308      .   S
    Zr124  O130      1.91947      .   S
    N3     O130      4.65306      .   S
