# CIF file generated by openbabel 2.4.90, see http://openbabel.sf.net
data_I
_chemical_name_common ''
_cell_length_a 12.563
_cell_length_b 12.561
_cell_length_c 25.828
_cell_angle_alpha 90
_cell_angle_beta 90
_cell_angle_gamma 89.992
_space_group_name_H-M_alt 'P 1'
_space_group_name_Hall 'P 1'
loop_
    _symmetry_equiv_pos_as_xyz
    x,y,z
loop_
    _atom_site_label
    _atom_site_type_symbol
    _atom_site_fract_x
    _atom_site_fract_y
    _atom_site_fract_z
    _atom_site_occupancy
    H0      H    0.50914   0.79596   0.92982   1.000
    H1      H    0.99088   0.70411   0.92983   1.000
    H2      H    0.20404   0.00919   0.42979   1.000
    H3      H    0.29596   0.49082   0.42979   1.000
    H4      H    0.49087   0.20410   0.07018   1.000
    H5      H    0.00913   0.29594   0.07018   1.000
    H6      H    0.79597   0.99083   0.57022   1.000
    H7      H    0.70405   0.50921   0.57022   1.000
    S8      S    0.55017   0.70695   0.90827   1.000
    S9      S    0.94984   0.79311   0.90826   1.000
    S10     S    0.29307   0.05019   0.40825   1.000
    S11     S    0.20693   0.44982   0.40825   1.000
    S12     S    0.44983   0.29309   0.09175   1.000
    S13     S    0.05017   0.20693   0.09174   1.000
    S14     S    0.70694   0.94984   0.59170   1.000
    S15     S    0.79308   0.55020   0.59175   1.000
loop_
    _geom_bond_atom_site_label_1
    _geom_bond_atom_site_label_2
    _geom_bond_distance
    _geom_bond_site_symmetry_2
    _ccdc_geom_bond_type
    H4     S12       1.35117      .   S
    H5     S13       1.35117      .   S
    S11    H3        1.35119      .   S
    S10    H2        1.35120      .   S
    H6     S14       1.35056      .   S
    H7     S15       1.35111      .   S
    S9     H1        1.35118      .   S
    S8     H0        1.35111      .   S
