# CIF file generated by openbabel 2.4.90, see http://openbabel.sf.net
data_I
_chemical_name_common ''
_cell_length_a 12.563
_cell_length_b 12.561
_cell_length_c 25.828
_cell_angle_alpha 90
_cell_angle_beta 90
_cell_angle_gamma 89.992
_space_group_name_H-M_alt 'P 1'
_space_group_name_Hall 'P 1'
loop_
    _symmetry_equiv_pos_as_xyz
    x,y,z
loop_
    _atom_site_label
    _atom_site_type_symbol
    _atom_site_fract_x
    _atom_site_fract_y
    _atom_site_fract_z
    _atom_site_occupancy
    N0      N    0.25000   0.75002   0.83305   1.000
    N1      N    0.75145   0.97034   0.58096   1.000
    N2      N    0.52966   0.75145   0.91905   1.000
    N3      N    0.75001   0.25001   0.66697   1.000
    N4      N    0.25000   0.75002   0.33303   1.000
    N5      N    0.97036   0.74861   0.91905   1.000
    N6      N    0.75001   0.25001   0.16693   1.000
    N7      N    0.47035   0.24859   0.08097   1.000
    N8      N    0.25145   0.47032   0.41902   1.000
    N9      N    0.24856   0.02969   0.41902   1.000
    N10     N    0.02965   0.25143   0.08096   1.000
    N11     N    0.74856   0.52971   0.58099   1.000
    Zr12    Zr   0.75001   0.75002   0.91625   1.000
    O13     O    0.75281   0.60783   0.98795   1.000
    O14     O    0.74734   0.89249   0.84485   1.000
    O15     O    0.83008   0.75506   0.91595   1.000
    O16     O    0.66994   0.74500   0.91595   1.000
    O17     O    0.75268   0.60755   0.84485   1.000
    O18     O    0.74721   0.89221   0.98795   1.000
    Zr19    Zr   0.75001   0.75002   0.58377   1.000
    O20     O    0.74499   0.83008   0.58406   1.000
    O21     O    0.75503   0.66997   0.58407   1.000
    O22     O    0.60781   0.74723   0.51205   1.000
    O23     O    0.60753   0.74735   0.65517   1.000
    O24     O    0.89248   0.75269   0.65517   1.000
    O25     O    0.89220   0.75281   0.51205   1.000
    Zr26    Zr   0.25000   0.25001   0.08376   1.000
    O27     O    0.33007   0.25504   0.08406   1.000
    O28     O    0.16993   0.24498   0.08406   1.000
    O29     O    0.24733   0.39248   0.15515   1.000
    O30     O    0.25280   0.10782   0.01205   1.000
    O31     O    0.24721   0.39220   0.01205   1.000
    O32     O    0.25267   0.10754   0.15515   1.000
    Zr33    Zr   0.25000   0.25000   0.41624   1.000
    O34     O    0.10781   0.24721   0.48796   1.000
    O35     O    0.24498   0.33006   0.41594   1.000
    O36     O    0.25503   0.16995   0.41594   1.000
    O37     O    0.39220   0.25280   0.48796   1.000
    O38     O    0.10753   0.24734   0.34483   1.000
    O39     O    0.39248   0.25268   0.34483   1.000
loop_
    _geom_bond_atom_site_label_1
    _geom_bond_atom_site_label_2
    _geom_bond_distance
    _geom_bond_site_symmetry_2
    _ccdc_geom_bond_type
    Zr12   O13       2.57313      .   S
    N6     O13       6.44752  1_554   S
    Zr12   O14       2.56982      .   S
    N3     O14       6.42473  1_545   S
    Zr12   O15       1.00790      .   S
    N5     O15       1.76605      .   S
    Zr12   O16       1.00790      .   S
    N2     O16       1.76604      .   S
    Zr12   O17       2.56988      .   S
    N3     O17       6.42492      .   S
    Zr12   O18       2.57308      .   S
    N6     O18       6.44736  1_544   S
    Zr19   O20       1.00758      .   S
    N1     O20       1.76549      .   S
    Zr19   O21       1.00759      .   S
    N11    O21       1.76547      .   S
    Zr19   O22       2.57371      .   S
    N4     O22       6.44870      .   S
    Zr19   O23       2.57018      .   S
    N0     O23       6.42524      .   S
    Zr19   O24       2.57015      .   S
    N0     O24       6.42520  1_455   S
    Zr19   O25       2.57367      .   S
    N4     O25       6.44860  1_455   S
    Zr26   O27       1.00790      .   S
    N7     O27       1.76605      .   S
    Zr26   O28       1.00790      .   S
    N10    O28       1.76605      .   S
    Zr26   O29       2.56983      .   S
    N4     O29       6.42478      .   S
    Zr26   O30       2.57322      .   S
    N0     O30       6.44777  1_566   S
    Zr26   O31       2.57328      .   S
    N0     O31       6.44793  1_556   S
    Zr26   O32       2.56962      .   S
    N4     O32       6.42477  1_565   S
    Zr33   O34       2.57363      .   S
    N3     O34       6.44848  1_655   S
    Zr33   O35       1.00758      .   S
    N8     O35       1.76547      .   S
    Zr33   O36       1.00758      .   S
    N9     O36       1.76547      .   S
    Zr33   O37       2.57366      .   S
    N3     O37       6.44856      .   S
    Zr33   O38       2.57029      .   S
    N6     O38       6.42558  1_655   S
    Zr33   O39       2.57033      .   S
    N6     O39       6.42565      .   S
