# CIF file generated by openbabel 2.4.90, see http://openbabel.sf.net
data_I
_chemical_name_common ''
_cell_length_a 19.009
_cell_length_b 13.056
_cell_length_c 12.882
_cell_angle_alpha 111.49
_cell_angle_beta 105.097
_cell_angle_gamma 98.844
_space_group_name_H-M_alt 'P 1'
_space_group_name_Hall 'P 1'
loop_
    _symmetry_equiv_pos_as_xyz
    x,y,z
loop_
    _atom_site_label
    _atom_site_type_symbol
    _atom_site_fract_x
    _atom_site_fract_y
    _atom_site_fract_z
    _atom_site_occupancy
    Lv0     Lv   0.25000   0.99999   0.50001   1.000
    Lv1     Lv   0.23512   0.10997   0.93243   1.000
    Lv2     Lv   0.73512   0.10997   0.93260   1.000
    Lv3     Lv   0.76489   0.88979   0.06719   1.000
    Lv4     Lv   0.26489   0.88979   0.06720   1.000
    Lv5     Lv   0.50000   0.99999   1.00000   1.000
    Lv6     Lv   0.00001   0.99999   0.00000   1.000
    Lv7     Lv   0.75001   0.99999   0.50001   1.000
