# CIF file generated by openbabel 2.4.90, see http://openbabel.sf.net
data_I
_chemical_name_common 'VESTA_phase_1'
_cell_length_a 21.85
_cell_length_b 21.892
_cell_length_c 13.972
_cell_angle_alpha 95.2
_cell_angle_beta 99.23
_cell_angle_gamma 99.89
_space_group_name_H-M_alt 'P 1'
_space_group_name_Hall 'P 1'
loop_
    _symmetry_equiv_pos_as_xyz
    x,y,z
loop_
    _atom_site_label
    _atom_site_type_symbol
    _atom_site_fract_x
    _atom_site_fract_y
    _atom_site_fract_z
    _atom_site_occupancy
    Zn0     Zn   0.19553   0.37802   0.89234   1.000
    Zn1     Zn   0.18630   0.88161   0.89234   1.000
    Zn2     Zn   0.70195   0.37816   0.89247   1.000
    Zn3     Zn   0.69271   0.88174   0.89247   1.000
    Zn4     Zn   0.16824   0.35857   0.68104   1.000
    Zn5     Zn   0.15900   0.86216   0.68104   1.000
    Zn6     Zn   0.67302   0.35849   0.68090   1.000
    Zn7     Zn   0.66379   0.86208   0.68090   1.000
    Zn8     Zn   0.33947   0.14367   0.12252   1.000
    Zn9     Zn   0.33023   0.64725   0.12252   1.000
    Zn10    Zn   0.84588   0.14379   0.12265   1.000
    Zn11    Zn   0.83665   0.64738   0.12265   1.000
    Zn12    Zn   0.36839   0.16333   0.33409   1.000
    Zn13    Zn   0.35916   0.66692   0.33409   1.000
    Zn14    Zn   0.87318   0.16325   0.33395   1.000
    Zn15    Zn   0.86394   0.66684   0.33395   1.000
    H16     H    0.15334   0.04099   0.64056   1.000
    H17     H    0.14420   0.54459   0.64054   1.000
    H18     H    0.65861   0.04099   0.64057   1.000
    H19     H    0.64940   0.54458   0.64057   1.000
    H20     H    0.14471   0.15392   0.63560   1.000
    H21     H    0.13558   0.65753   0.63559   1.000
    H22     H    0.65001   0.15395   0.63567   1.000
    H23     H    0.64080   0.65754   0.63566   1.000
    H24     H    0.22275   0.19242   0.94188   1.000
    H25     H    0.21356   0.69601   0.94188   1.000
    H26     H    0.72872   0.19252   0.94170   1.000
    H27     H    0.71958   0.69612   0.94167   1.000
    H28     H    0.22984   0.08032   0.94723   1.000
    H29     H    0.22065   0.58392   0.94724   1.000
    H30     H    0.73571   0.08041   0.94705   1.000
    H31     H    0.72656   0.58401   0.94702   1.000
    H32     H    0.46437   0.33300   0.62519   1.000
    H33     H    0.45512   0.83656   0.62500   1.000
    H34     H    0.96984   0.33288   0.62459   1.000
    H35     H    0.96058   0.83640   0.62460   1.000
    H36     H    0.35197   0.34005   0.63336   1.000
    H37     H    0.34273   0.84361   0.63337   1.000
    H38     H    0.85746   0.33986   0.63282   1.000
    H39     H    0.84820   0.84339   0.63283   1.000
    H40     H    0.40468   0.40171   0.94082   1.000
    H41     H    0.39544   0.90534   0.94081   1.000
    H42     H    0.91029   0.40207   0.94011   1.000
    H43     H    0.90106   0.90566   0.94010   1.000
    H44     H    0.51705   0.39317   0.93282   1.000
    H45     H    0.50781   0.89679   0.93280   1.000
    H46     H    0.00000   0.39357   0.93207   1.000
    H47     H    0.00000   0.89716   0.93206   1.000
    H48     H    0.17237   0.45889   0.04743   1.000
    H49     H    0.16305   0.96248   0.04738   1.000
    H50     H    0.67798   0.45901   0.04731   1.000
    H51     H    0.66877   0.96259   0.04729   1.000
    H52     H    0.14256   0.26337   0.19469   1.000
    H53     H    0.13356   0.76699   0.19477   1.000
    H54     H    0.64906   0.26357   0.19494   1.000
    H55     H    0.63990   0.76718   0.19497   1.000
    H56     H    0.14600   0.26585   0.01657   1.000
    H57     H    0.13697   0.76946   0.01664   1.000
    H58     H    0.65268   0.26603   0.01687   1.000
    H59     H    0.64348   0.76961   0.01689   1.000
    H60     H    0.25823   0.38773   0.36875   1.000
    H61     H    0.24905   0.89151   0.36885   1.000
    H62     H    0.76394   0.38829   0.36925   1.000
    H63     H    0.75476   0.89192   0.36930   1.000
    H64     H    0.25918   0.38245   0.54810   1.000
    H65     H    0.24996   0.88621   0.54819   1.000
    H66     H    0.76458   0.38288   0.54852   1.000
    H67     H    0.75537   0.88650   0.54856   1.000
    H68     H    0.06445   0.33356   0.50278   1.000
    H69     H    0.05525   0.83703   0.50271   1.000
    H70     H    0.56988   0.33326   0.50219   1.000
    H71     H    0.56067   0.83687   0.50217   1.000
    H72     H    0.21979   0.49388   0.29380   1.000
    H73     H    0.21059   0.99766   0.29347   1.000
    H74     H    0.72524   0.49442   0.29300   1.000
    H75     H    0.71608   0.99804   0.29325   1.000
    H76     H    0.18241   0.01685   0.19578   1.000
    H77     H    0.17355   0.52046   0.19586   1.000
    H78     H    0.68763   0.01694   0.19555   1.000
    H79     H    0.67835   0.52051   0.19557   1.000
    H80     H    0.13715   0.48499   0.28757   1.000
    H81     H    0.12798   0.98846   0.28784   1.000
    H82     H    0.64261   0.48482   0.28771   1.000
    H83     H    0.63346   0.98843   0.28774   1.000
    H84     H    0.03431   0.29809   0.24142   1.000
    H85     H    0.02521   0.80154   0.24139   1.000
    H86     H    0.54034   0.29806   0.24077   1.000
    H87     H    0.53115   0.80164   0.24079   1.000
    H88     H    0.50478   0.31390   0.34342   1.000
    H89     H    0.49559   0.81756   0.34341   1.000
    H90     H    0.00000   0.31440   0.34420   1.000
    H91     H    0.00000   0.81785   0.34412   1.000
    H92     H    0.02428   0.37501   0.27462   1.000
    H93     H    0.01509   0.87844   0.27446   1.000
    H94     H    0.52990   0.37480   0.27425   1.000
    H95     H    0.52074   0.87841   0.27417   1.000
    H96     H    0.38277   0.48082   0.37442   1.000
    H97     H    0.37357   0.98441   0.37442   1.000
    H98     H    0.88799   0.48082   0.37444   1.000
    H99     H    0.87886   0.98443   0.37443   1.000
    H100    H    0.39138   0.36787   0.37933   1.000
    H101    H    0.38217   0.87146   0.37932   1.000
    H102    H    0.89661   0.36788   0.37900   1.000
    H103    H    0.88748   0.87149   0.37938   1.000
    H104    H    0.31261   0.32928   0.07331   1.000
    H105    H    0.30346   0.83289   0.07329   1.000
    H106    H    0.81862   0.32940   0.07311   1.000
    H107    H    0.80943   0.83299   0.07312   1.000
    H108    H    0.30563   0.44140   0.06796   1.000
    H109    H    0.29647   0.94500   0.06794   1.000
    H110    H    0.81153   0.44149   0.06775   1.000
    H111    H    0.80234   0.94508   0.06776   1.000
    H112    H    0.07160   0.18901   0.39039   1.000
    H113    H    0.06234   0.69253   0.39000   1.000
    H114    H    0.57706   0.18885   0.38979   1.000
    H115    H    0.56781   0.69240   0.38980   1.000
    H116    H    0.18398   0.18202   0.38216   1.000
    H117    H    0.17472   0.68555   0.38217   1.000
    H118    H    0.68945   0.18180   0.38162   1.000
    H119    H    0.68020   0.68535   0.38160   1.000
    H120    H    0.13113   0.11976   0.07488   1.000
    H121    H    0.12189   0.62335   0.07488   1.000
    H122    H    0.63674   0.12008   0.07418   1.000
    H123    H    0.62751   0.62371   0.07416   1.000
    H124    H    0.01883   0.12826   0.08293   1.000
    H125    H    0.00959   0.63184   0.08292   1.000
    H126    H    0.52437   0.12862   0.08218   1.000
    H127    H    0.51514   0.63225   0.08217   1.000
    H128    H    0.36342   0.06281   0.96769   1.000
    H129    H    0.35421   0.56641   0.96760   1.000
    H130    H    0.86913   0.06293   0.96760   1.000
    H131    H    0.85981   0.56652   0.96755   1.000
    H132    H    0.39229   0.25824   0.82003   1.000
    H133    H    0.38312   0.76184   0.82006   1.000
    H134    H    0.89863   0.25843   0.82023   1.000
    H135    H    0.88963   0.76205   0.82031   1.000
    H136    H    0.38870   0.25580   0.99811   1.000
    H137    H    0.37951   0.75939   0.99813   1.000
    H138    H    0.89522   0.25595   0.99836   1.000
    H139    H    0.88620   0.75956   0.99843   1.000
    H140    H    0.27743   0.13351   0.64570   1.000
    H141    H    0.26825   0.63713   0.64570   1.000
    H142    H    0.78314   0.13392   0.64614   1.000
    H143    H    0.77396   0.63771   0.64620   1.000
    H144    H    0.27681   0.13892   0.46644   1.000
    H145    H    0.26761   0.64254   0.46648   1.000
    H146    H    0.78223   0.13922   0.46681   1.000
    H147    H    0.77301   0.64299   0.46600   1.000
    H148    H    0.47151   0.18854   0.51282   1.000
    H149    H    0.46230   0.69216   0.51280   1.000
    H150    H    0.97693   0.18837   0.51228   1.000
    H151    H    0.96773   0.69184   0.51220   1.000
    H152    H    0.31611   0.02738   0.72170   1.000
    H153    H    0.30695   0.53100   0.72169   1.000
    H154    H    0.82159   0.02776   0.72151   1.000
    H155    H    0.81240   0.53154   0.72117   1.000
    H156    H    0.35384   0.50490   0.81941   1.000
    H157    H    0.34456   0.00000   0.81943   1.000
    H158    H    0.85862   0.50496   0.81910   1.000
    H159    H    0.84977   0.00000   0.81919   1.000
    H160    H    0.39873   0.03699   0.72724   1.000
    H161    H    0.38957   0.54060   0.72727   1.000
    H162    H    0.90420   0.03696   0.72714   1.000
    H163    H    0.89504   0.54043   0.72742   1.000
    H164    H    0.50103   0.22378   0.77420   1.000
    H165    H    0.49184   0.72736   0.77420   1.000
    H166    H    0.00000   0.22387   0.77360   1.000
    H167    H    0.99788   0.72732   0.77356   1.000
    H168    H    0.03089   0.20755   0.67087   1.000
    H169    H    0.02173   0.71100   0.67076   1.000
    H170    H    0.53660   0.20786   0.67158   1.000
    H171    H    0.52740   0.71152   0.67157   1.000
    H172    H    0.51145   0.14701   0.74082   1.000
    H173    H    0.50229   0.65062   0.74073   1.000
    H174    H    0.00000   0.14696   0.74053   1.000
    H175    H    0.00000   0.65039   0.74037   1.000
    C176    C    0.18749   0.48973   0.79648   1.000
    C177    C    0.17820   0.99331   0.79648   1.000
    C178    C    0.69276   0.48973   0.79644   1.000
    C179    C    0.68350   0.99332   0.79645   1.000
    C180    C    0.19221   0.05379   0.79392   1.000
    C181    C    0.18305   0.55739   0.79391   1.000
    C182    C    0.69770   0.05383   0.79385   1.000
    C183    C    0.68851   0.55743   0.79383   1.000
    C184    C    0.16820   0.07471   0.70603   1.000
    C185    C    0.15905   0.57831   0.70602   1.000
    C186    C    0.67359   0.07474   0.70601   1.000
    C187    C    0.66440   0.57833   0.70600   1.000
    C188    C    0.16335   0.13716   0.70337   1.000
    C189    C    0.15420   0.64076   0.70336   1.000
    C190    C    0.66877   0.13719   0.70337   1.000
    C191    C    0.65956   0.64079   0.70336   1.000
    C192    C    0.18278   0.18000   0.78838   1.000
    C193    C    0.17361   0.68360   0.78838   1.000
    C194    C    0.68834   0.18005   0.78835   1.000
    C195    C    0.67915   0.68364   0.78834   1.000
    C196    C    0.20697   0.15908   0.87614   1.000
    C197    C    0.19779   0.66268   0.87614   1.000
    C198    C    0.71277   0.15916   0.87601   1.000
    C199    C    0.70360   0.66277   0.87599   1.000
    C200    C    0.21131   0.09654   0.87901   1.000
    C201    C    0.20213   0.60013   0.87901   1.000
    C202    C    0.71706   0.09661   0.87888   1.000
    C203    C    0.70789   0.60021   0.87885   1.000
    C204    C    0.17844   0.24762   0.78503   1.000
    C205    C    0.16926   0.75122   0.78504   1.000
    C206    C    0.68385   0.24764   0.78510   1.000
    C207    C    0.67464   0.75123   0.78509   1.000
    C208    C    0.05933   0.35975   0.77344   1.000
    C209    C    0.05009   0.86331   0.77340   1.000
    C210    C    0.56506   0.35966   0.77368   1.000
    C211    C    0.55582   0.86324   0.77368   1.000
    C212    C    0.49740   0.36286   0.77855   1.000
    C213    C    0.48816   0.86645   0.77855   1.000
    C214    C    0.00000   0.36301   0.77780   1.000
    C215    C    0.99375   0.86657   0.77787   1.000
    C216    C    0.45085   0.34801   0.69398   1.000
    C217    C    0.44161   0.85158   0.69398   1.000
    C218    C    0.95639   0.34803   0.69337   1.000
    C219    C    0.94714   0.85156   0.69338   1.000
    C220    C    0.38855   0.35239   0.69839   1.000
    C221    C    0.37931   0.85596   0.69839   1.000
    C222    C    0.89405   0.35235   0.69782   1.000
    C223    C    0.88480   0.85590   0.69783   1.000
    C224    C    0.37167   0.37212   0.78733   1.000
    C225    C    0.36243   0.87571   0.78732   1.000
    C226    C    0.87712   0.37218   0.78668   1.000
    C227    C    0.86788   0.87575   0.78668   1.000
    C228    C    0.41821   0.38681   0.87198   1.000
    C229    C    0.40898   0.89042   0.87197   1.000
    C230    C    0.92375   0.38707   0.87125   1.000
    C231    C    0.91451   0.89065   0.87125   1.000
    C232    C    0.48047   0.38200   0.86767   1.000
    C233    C    0.47123   0.88561   0.86766   1.000
    C234    C    0.98602   0.38231   0.86692   1.000
    C235    C    0.97678   0.88588   0.86690   1.000
    C236    C    0.30412   0.37600   0.79184   1.000
    C237    C    0.29488   0.87960   0.79184   1.000
    C238    C    0.80954   0.37598   0.79142   1.000
    C239    C    0.80030   0.87956   0.79143   1.000
    C240    C    0.16597   0.41675   0.08364   1.000
    C241    C    0.15672   0.92035   0.08360   1.000
    C242    C    0.67179   0.41689   0.08361   1.000
    C243    C    0.66259   0.92048   0.08360   1.000
    C244    C    0.16522   0.42065   0.18385   1.000
    C245    C    0.15598   0.92425   0.18384   1.000
    C246    C    0.67092   0.42080   0.18378   1.000
    C247    C    0.66174   0.92440   0.18378   1.000
    C248    C    0.15624   0.36402   0.22493   1.000
    C249    C    0.14709   0.86764   0.22490   1.000
    C250    C    0.66219   0.36420   0.22497   1.000
    C251    C    0.65302   0.86781   0.22499   1.000
    C252    C    0.14905   0.30772   0.16468   1.000
    C253    C    0.13998   0.81133   0.16473   1.000
    C254    C    0.65537   0.30791   0.16484   1.000
    C255    C    0.64620   0.81151   0.16487   1.000
    C256    C    0.15103   0.30849   0.06607   1.000
    C257    C    0.14194   0.81210   0.06612   1.000
    C258    C    0.65746   0.30867   0.06627   1.000
    C259    C    0.64827   0.81226   0.06629   1.000
    C260    C    0.15639   0.36267   0.33126   1.000
    C261    C    0.14722   0.86628   0.33128   1.000
    C262    C    0.66215   0.36284   0.33126   1.000
    C263    C    0.65297   0.86645   0.33128   1.000
    C264    C    0.21419   0.37588   0.39597   1.000
    C265    C    0.20500   0.87958   0.39603   1.000
    C266    C    0.71984   0.37625   0.39624   1.000
    C267    C    0.71066   0.87987   0.39627   1.000
    C268    C    0.21536   0.37292   0.49499   1.000
    C269    C    0.20615   0.87662   0.49504   1.000
    C270    C    0.72084   0.37323   0.49521   1.000
    C271    C    0.71165   0.87685   0.49524   1.000
    C272    C    0.10612   0.34514   0.46932   1.000
    C273    C    0.09692   0.84868   0.46929   1.000
    C274    C    0.61163   0.34504   0.46900   1.000
    C275    C    0.60243   0.84865   0.46899   1.000
    C276    C    0.10015   0.34676   0.36843   1.000
    C277    C    0.09097   0.85030   0.36840   1.000
    C278    C    0.60583   0.34672   0.36814   1.000
    C279    C    0.59664   0.85033   0.36814   1.000
    C280    C    0.17421   0.48325   0.24323   1.000
    C281    C    0.16490   0.98685   0.24319   1.000
    C282    C    0.67954   0.48339   0.24304   1.000
    C283    C    0.67037   0.98699   0.24303   1.000
    C284    C    0.03609   0.33274   0.30425   1.000
    C285    C    0.02693   0.83620   0.30417   1.000
    C286    C    0.54187   0.33253   0.30370   1.000
    C287    C    0.53268   0.83614   0.30369   1.000
    C288    C    0.34868   0.03209   0.21854   1.000
    C289    C    0.33942   0.53567   0.21855   1.000
    C290    C    0.85399   0.03209   0.21851   1.000
    C291    C    0.84469   0.53567   0.21851   1.000
    C292    C    0.34367   0.46798   0.22110   1.000
    C293    C    0.33448   0.97158   0.22114   1.000
    C294    C    0.84914   0.46802   0.22108   1.000
    C295    C    0.83998   0.97162   0.22107   1.000
    C296    C    0.36778   0.44708   0.30899   1.000
    C297    C    0.35859   0.95067   0.30898   1.000
    C298    C    0.87314   0.44710   0.30897   1.000
    C299    C    0.86400   0.95070   0.30896   1.000
    C300    C    0.37261   0.38462   0.31163   1.000
    C301    C    0.36341   0.88821   0.31162   1.000
    C302    C    0.87799   0.38465   0.31160   1.000
    C303    C    0.86885   0.88825   0.31162   1.000
    C304    C    0.35303   0.34176   0.22665   1.000
    C305    C    0.34384   0.84536   0.22664   1.000
    C306    C    0.85857   0.34181   0.22661   1.000
    C307    C    0.84941   0.84541   0.22661   1.000
    C308    C    0.32858   0.36264   0.13900   1.000
    C309    C    0.31941   0.86625   0.13898   1.000
    C310    C    0.83439   0.36273   0.13885   1.000
    C311    C    0.82522   0.86633   0.13885   1.000
    C312    C    0.32429   0.42520   0.13613   1.000
    C313    C    0.31512   0.92880   0.13612   1.000
    C314    C    0.83005   0.42528   0.13598   1.000
    C315    C    0.82088   0.92887   0.13598   1.000
    C316    C    0.35755   0.27417   0.22990   1.000
    C317    C    0.34833   0.77776   0.22989   1.000
    C318    C    0.86293   0.27419   0.22995   1.000
    C319    C    0.85375   0.77779   0.22996   1.000
    C320    C    0.47636   0.16216   0.24131   1.000
    C321    C    0.46712   0.66575   0.24131   1.000
    C322    C    0.98209   0.16210   0.24155   1.000
    C323    C    0.97285   0.66566   0.24155   1.000
    C324    C    0.03843   0.15884   0.23712   1.000
    C325    C    0.02919   0.66239   0.23712   1.000
    C326    C    0.54402   0.15896   0.23644   1.000
    C327    C    0.53478   0.66255   0.23640   1.000
    C328    C    0.08504   0.17385   0.32161   1.000
    C329    C    0.07579   0.67738   0.32160   1.000
    C330    C    0.59057   0.17383   0.32101   1.000
    C331    C    0.58133   0.67740   0.32101   1.000
    C332    C    0.14738   0.16951   0.31716   1.000
    C333    C    0.13813   0.67306   0.31717   1.000
    C334    C    0.65287   0.16945   0.31660   1.000
    C335    C    0.64363   0.67303   0.31659   1.000
    C336    C    0.16430   0.14966   0.22830   1.000
    C337    C    0.15506   0.65323   0.22830   1.000
    C338    C    0.66975   0.14970   0.22767   1.000
    C339    C    0.66051   0.65330   0.22766   1.000
    C340    C    0.11767   0.13476   0.14374   1.000
    C341    C    0.10843   0.63834   0.14370   1.000
    C342    C    0.62321   0.13499   0.14302   1.000
    C343    C    0.61397   0.63861   0.14300   1.000
    C344    C    0.05540   0.13953   0.14807   1.000
    C345    C    0.04616   0.64310   0.14807   1.000
    C346    C    0.56095   0.13980   0.14733   1.000
    C347    C    0.55171   0.64341   0.14730   1.000
    C348    C    0.23188   0.14585   0.22356   1.000
    C349    C    0.22265   0.64943   0.22350   1.000
    C350    C    0.73730   0.14581   0.22310   1.000
    C351    C    0.72806   0.64941   0.22314   1.000
    C352    C    0.36959   0.10493   0.93138   1.000
    C353    C    0.36039   0.60853   0.93138   1.000
    C354    C    0.87547   0.10507   0.93136   1.000
    C355    C    0.86622   0.60867   0.93130   1.000
    C356    C    0.37045   0.10102   0.83120   1.000
    C357    C    0.36127   0.60462   0.83120   1.000
    C358    C    0.87620   0.10116   0.83115   1.000
    C359    C    0.86697   0.60477   0.83114   1.000
    C360    C    0.37917   0.15761   0.79000   1.000
    C361    C    0.37000   0.66122   0.79002   1.000
    C362    C    0.88509   0.15778   0.79004   1.000
    C363    C    0.87594   0.66139   0.79006   1.000
    C364    C    0.38599   0.21390   0.85013   1.000
    C365    C    0.37682   0.71751   0.85015   1.000
    C366    C    0.89221   0.21408   0.85027   1.000
    C367    C    0.88314   0.71769   0.85032   1.000
    C368    C    0.38392   0.21315   0.94871   1.000
    C369    C    0.37473   0.71675   0.94870   1.000
    C370    C    0.89024   0.21331   0.94888   1.000
    C371    C    0.88116   0.71692   0.94890   1.000
    C372    C    0.37922   0.15896   0.68371   1.000
    C373    C    0.37004   0.66258   0.68373   1.000
    C374    C    0.88496   0.15913   0.68371   1.000
    C375    C    0.87580   0.66275   0.68373   1.000
    C376    C    0.32153   0.14555   0.61872   1.000
    C377    C    0.31234   0.64917   0.61875   1.000
    C378    C    0.82718   0.14584   0.61896   1.000
    C379    C    0.81800   0.64955   0.61900   1.000
    C380    C    0.32054   0.14857   0.51975   1.000
    C381    C    0.31134   0.65219   0.51978   1.000
    C382    C    0.82603   0.14880   0.51995   1.000
    C383    C    0.81682   0.65251   0.52001   1.000
    C384    C    0.42976   0.17676   0.54600   1.000
    C385    C    0.42056   0.68038   0.54599   1.000
    C386    C    0.93526   0.17673   0.54570   1.000
    C387    C    0.92606   0.68027   0.54566   1.000
    C388    C    0.43554   0.17509   0.64685   1.000
    C389    C    0.42635   0.67870   0.64685   1.000
    C390    C    0.94121   0.17511   0.64658   1.000
    C391    C    0.93204   0.67865   0.64655   1.000
    C392    C    0.36182   0.03842   0.77190   1.000
    C393    C    0.35265   0.54203   0.77195   1.000
    C394    C    0.86728   0.03857   0.77179   1.000
    C395    C    0.85797   0.54217   0.77175   1.000
    C396    C    0.49950   0.18928   0.71130   1.000
    C397    C    0.49032   0.69289   0.71128   1.000
    C398    C    0.00000   0.18921   0.71082   1.000
    C399    C    0.99610   0.69267   0.71070   1.000
    N400    N    0.15924   0.36239   0.02580   1.000
    N401    N    0.15006   0.86599   0.02590   1.000
    N402    N    0.66543   0.36254   0.02598   1.000
    N403    N    0.65622   0.86613   0.02599   1.000
    N404    N    0.16195   0.35768   0.53142   1.000
    N405    N    0.15274   0.86129   0.53143   1.000
    N406    N    0.66736   0.35773   0.53135   1.000
    N407    N    0.65815   0.86134   0.53136   1.000
    N408    N    0.37596   0.15928   0.98900   1.000
    N409    N    0.36676   0.66287   0.98901   1.000
    N410    N    0.88213   0.15942   0.98909   1.000
    N411    N    0.87295   0.66302   0.98910   1.000
    N412    N    0.37403   0.16407   0.48360   1.000
    N413    N    0.36482   0.66768   0.48364   1.000
    N414    N    0.87944   0.16413   0.48356   1.000
    N415    N    0.87023   0.66774   0.48357   1.000
    O416    O    0.17761   0.45562   0.71475   1.000
    O417    O    0.16834   0.95921   0.71475   1.000
    O418    O    0.68293   0.45562   0.71471   1.000
    O419    O    0.67369   0.95921   0.71471   1.000
    O420    O    0.20069   0.47185   0.88040   1.000
    O421    O    0.19144   0.97543   0.88046   1.000
    O422    O    0.70574   0.47184   0.88045   1.000
    O423    O    0.69649   0.97542   0.88045   1.000
    O424    O    0.19160   0.28259   0.86640   1.000
    O425    O    0.18249   0.78619   0.86640   1.000
    O426    O    0.69756   0.28267   0.86650   1.000
    O427    O    0.68833   0.78626   0.86649   1.000
    O428    O    0.16241   0.26483   0.70150   1.000
    O429    O    0.15318   0.76842   0.70152   1.000
    O430    O    0.66716   0.26475   0.70100   1.000
    O431    O    0.65793   0.76834   0.70169   1.000
    O432    O    0.07370   0.35078   0.68890   1.000
    O433    O    0.06446   0.85435   0.68892   1.000
    O434    O    0.57885   0.35072   0.68873   1.000
    O435    O    0.56961   0.85431   0.68870   1.000
    O436    O    0.09708   0.36675   0.85456   1.000
    O437    O    0.08785   0.87033   0.85455   1.000
    O438    O    0.60327   0.36666   0.85431   1.000
    O439    O    0.59403   0.87024   0.85431   1.000
    O440    O    0.26594   0.36672   0.71045   1.000
    O441    O    0.25670   0.87031   0.71045   1.000
    O442    O    0.77102   0.36646   0.71040   1.000
    O443    O    0.76179   0.87004   0.71041   1.000
    O444    O    0.29027   0.38785   0.87571   1.000
    O445    O    0.28104   0.89147   0.87571   1.000
    O446    O    0.79599   0.38808   0.87550   1.000
    O447    O    0.78676   0.89167   0.87550   1.000
    O448    O    0.35849   0.06619   0.30028   1.000
    O449    O    0.34925   0.56978   0.30028   1.000
    O450    O    0.86385   0.06620   0.30024   1.000
    O451    O    0.85457   0.56979   0.30024   1.000
    O452    O    0.33569   0.04998   0.13454   1.000
    O453    O    0.32644   0.55357   0.13454   1.000
    O454    O    0.84074   0.04997   0.13453   1.000
    O455    O    0.83149   0.55356   0.13453   1.000
    O456    O    0.34385   0.23915   0.14850   1.000
    O457    O    0.33462   0.74274   0.14849   1.000
    O458    O    0.84969   0.23921   0.14851   1.000
    O459    O    0.84059   0.74282   0.14850   1.000
    O460    O    0.37425   0.25707   0.31330   1.000
    O461    O    0.36502   0.76065   0.31300   1.000
    O462    O    0.87900   0.25699   0.31347   1.000
    O463    O    0.86977   0.76058   0.31349   1.000
    O464    O    0.46257   0.17110   0.32626   1.000
    O465    O    0.45333   0.67469   0.32626   1.000
    O466    O    0.96772   0.17106   0.32607   1.000
    O467    O    0.95848   0.67463   0.32606   1.000
    O468    O    0.43815   0.15516   0.16068   1.000
    O469    O    0.42891   0.65875   0.16068   1.000
    O470    O    0.94433   0.15508   0.16040   1.000
    O471    O    0.93510   0.65865   0.16043   1.000
    O472    O    0.27039   0.15536   0.30458   1.000
    O473    O    0.26116   0.65895   0.30450   1.000
    O474    O    0.77548   0.15510   0.30454   1.000
    O475    O    0.76624   0.65869   0.30454   1.000
    O476    O    0.24543   0.13374   0.13949   1.000
    O477    O    0.23619   0.63732   0.13949   1.000
    O478    O    0.75114   0.13394   0.13928   1.000
    O479    O    0.74191   0.63756   0.13928   1.000
loop_
    _geom_bond_atom_site_label_1
    _geom_bond_atom_site_label_2
    _geom_bond_distance
    _geom_bond_site_symmetry_2
    _ccdc_geom_bond_type
    H56    C256      1.08869      .   S
    H57    C257      1.08871      .   S
    H58    C258      1.08869      .   S
    H59    C259      1.08874      .   S
    N400   C256      1.34949      .   S
    N400   C240      1.34837      .   S
    N400   Zn0       2.17249  1_554   S
    N401   C257      1.34887      .   S
    N401   C241      1.34757      .   S
    N401   Zn1       2.17327  1_554   S
    N402   C258      1.34891      .   S
    N402   C242      1.34787      .   S
    N402   Zn2       2.17548  1_554   S
    N403   C259      1.34887      .   S
    N403   C243      1.34778      .   S
    N403   Zn3       2.17527  1_554   S
    H51    C243      1.09074      .   S
    H50    C242      1.09073      .   S
    H49    C241      1.09056      .   S
    H48    C240      1.09071      .   S
    C256   C252      1.38690      .   S
    C257   C253      1.38682      .   S
    C258   C254      1.38677      .   S
    C259   C255      1.38682      .   S
    H110   C314      1.08879      .   S
    H111   C315      1.08876      .   S
    H109   C313      1.08890      .   S
    H108   C312      1.08881      .   S
    H106   C310      1.08883      .   S
    H107   C311      1.08876      .   S
    H105   C309      1.08886      .   S
    H104   C308      1.08892      .   S
    H123   C343      1.08924      .   S
    H122   C342      1.08930      .   S
    H120   C340      1.08934      .   S
    H121   C341      1.08882      .   S
    H127   C347      1.08898      .   S
    H126   C346      1.08922      .   S
    H125   C345      1.08917      .   S
    H124   C344      1.08912      .   S
    C243   C247      1.39790      .   S
    C241   C245      1.39825      .   S
    C242   C246      1.39783      .   S
    C240   C244      1.39789      .   S
    Zn8    O452      2.06148      .   S
    Zn8    O476      2.08289      .   S
    Zn8    O456      2.07200      .   S
    Zn8    O468      2.10173      .   S
    Zn8    N408      2.17533  1_554   S
    Zn9    O453      2.06147      .   S
    Zn9    O477      2.08288      .   S
    Zn9    O457      2.07199      .   S
    Zn9    O469      2.10167      .   S
    Zn9    N409      2.17553  1_554   S
    Zn10   O454      2.06091      .   S
    Zn10   O478      2.09661      .   S
    Zn10   O458      2.07241      .   S
    Zn10   O470      2.09681      .   S
    Zn10   N410      2.17333  1_554   S
    Zn11   O455      2.06090      .   S
    Zn11   O479      2.09654      .   S
    Zn11   O459      2.07240      .   S
    Zn11   O471      2.09677      .   S
    Zn11   N411      2.17372  1_554   S
    O455   C291      1.27547      .   S
    O454   C290      1.27552      .   S
    O452   C288      1.27520      .   S
    O453   C289      1.27531      .   S
    C314   C310      1.39240      .   S
    C314   C294      1.40296      .   S
    C315   C311      1.39239      .   S
    C315   C295      1.40296      .   S
    C313   C309      1.39233      .   S
    C313   C293      1.40289      .   S
    C312   C308      1.39237      .   S
    C312   C292      1.40245      .   S
    C311   C307      1.40345      .   S
    C310   C306      1.40346      .   S
    C309   C305      1.40345      .   S
    C308   C304      1.40343      .   S
    O478   C350      1.27125      .   S
    O479   C351      1.27180      .   S
    O477   C349      1.27181      .   S
    O476   C348      1.27260      .   S
    C343   C347      1.39260      .   S
    C343   C339      1.40341      .   S
    C342   C346      1.39264      .   S
    C342   C338      1.40336      .   S
    C341   C345      1.39276      .   S
    C341   C337      1.40401      .   S
    C340   C344      1.39267      .   S
    C340   C336      1.40365      .   S
    C347   C327      1.40315      .   S
    C346   C326      1.40337      .   S
    C345   C325      1.40378      .   S
    C344   C324      1.40384      .   S
    O457   C317      1.27474      .   S
    O459   C319      1.27494      .   S
    O456   C316      1.27471      .   S
    O458   C318      1.27481      .   S
    O470   C322      1.27069      .   S
    O471   C323      1.27032      .   S
    O469   C321      1.26984      .   S
    O468   C320      1.26983      .   S
    C252   H52       1.08831      .   S
    C252   C248      1.39840      .   S
    C253   H53       1.08832      .   S
    C253   C249      1.39807      .   S
    C254   H54       1.08840      .   S
    C254   C250      1.39846      .   S
    C255   H55       1.08831      .   S
    C255   C251      1.39848      .   S
    C247   C251      1.40927      .   S
    C247   C283      1.50144      .   S
    C246   C250      1.40923      .   S
    C246   C282      1.50145      .   S
    C245   C249      1.40886      .   S
    C245   C281      1.50140      .   S
    C244   C248      1.40923      .   S
    C244   C280      1.50142      .   S
    H78    C283      1.04219  1_545   S
    H79    C282      1.09570      .   S
    H76    C281      1.04413  1_545   S
    H77    C280      1.09569      .   S
    C290   C295      1.31175  1_545   S
    C290   O450      1.27250      .   S
    C291   C294      1.50415      .   S
    C291   O451      1.27250      .   S
    C288   C293      1.31292  1_545   S
    C288   O448      1.27263      .   S
    C289   C292      1.50395      .   S
    C289   O449      1.27254      .   S
    C295   C299      1.40383      .   S
    C294   C298      1.40378      .   S
    C292   C296      1.40434      .   S
    C293   C297      1.40371      .   S
    C350   C338      1.50397      .   S
    C350   O474      1.27567      .   S
    C351   C339      1.50388      .   S
    C351   O475      1.27518      .   S
    C349   C337      1.50507      .   S
    C349   O473      1.27429      .   S
    C348   C336      1.50492      .   S
    C348   O472      1.27450      .   S
    C249   C261      1.48888      .   S
    C248   C260      1.48815      .   S
    C250   C262      1.48821      .   S
    C251   C263      1.48822      .   S
    C306   C318      1.50399      .   S
    C306   C302      1.40337      .   S
    C307   C319      1.50398      .   S
    C307   C303      1.40369      .   S
    C305   C317      1.50402      .   S
    C305   C301      1.40364      .   S
    C304   C316      1.50401      .   S
    C304   C300      1.40369      .   S
    C339   C335      1.40397      .   S
    C338   C334      1.40405      .   S
    C337   C333      1.40419      .   S
    C336   C332      1.40415      .   S
    C317   O461      1.26952      .   S
    C316   O460      1.27318      .   S
    C318   O462      1.27300      .   S
    C319   O463      1.27302      .   S
    C327   C321      1.50418      .   S
    C327   C331      1.40311      .   S
    C326   C320      1.50408      .   S
    C326   C330      1.40279      .   S
    C324   C322      1.25625  1_455   S
    C324   C328      1.40275      .   S
    C325   C323      1.25622  1_455   S
    C325   C329      1.40259      .   S
    H86    C286      1.09786      .   S
    H87    C287      1.09800      .   S
    C321   O465      1.27695      .   S
    C320   O464      1.27696      .   S
    H85    C285      1.09799      .   S
    H84    C284      1.09799      .   S
    C322   O466      1.27660      .   S
    C323   O467      1.27650      .   S
    C283   H83       1.09918      .   S
    C283   H75       1.10002      .   S
    C282   H82       1.09916      .   S
    C282   H74       1.09805      .   S
    C281   H81       1.09921      .   S
    C281   H73       1.10001      .   S
    C280   H80       1.09924      .   S
    C280   H72       1.09996      .   S
    H95    C287      1.10088      .   S
    H94    C286      1.10086      .   S
    H93    C285      1.10086      .   S
    H92    C284      1.10085      .   S
    O450   Zn14      2.10145      .   S
    O451   Zn15      2.10148      .   S
    O449   Zn13      2.10206      .   S
    O448   Zn12      2.10211      .   S
    C287   H89       1.09654      .   S
    C287   C279      1.50231      .   S
    C286   H88       1.09663      .   S
    C286   C278      1.50235      .   S
    C285   H91       0.94027      .   S
    C285   C277      1.50238      .   S
    C284   H90       1.08062      .   S
    C284   C276      1.50239      .   S
    O473   Zn13      2.08837      .   S
    O475   Zn15      2.08153      .   S
    O474   Zn14      2.08148      .   S
    O472   Zn12      2.08831      .   S
    C299   C303      1.39264      .   S
    C299   H99       1.08958      .   S
    C298   C302      1.39259      .   S
    C298   H98       1.08954      .   S
    C297   C301      1.39262      .   S
    C297   H97       1.08964      .   S
    C296   C300      1.39262      .   S
    C296   H96       1.08958      .   S
    C302   H102      1.08539      .   S
    C303   H103      1.08969      .   S
    C301   H101      1.08967      .   S
    C300   H100      1.08971      .   S
    O461   Zn13      2.08466      .   S
    O460   Zn12      2.08367      .   S
    O462   Zn14      2.08269      .   S
    O463   Zn15      2.08262      .   S
    C335   C331      1.39164      .   S
    C335   H119      1.08869      .   S
    C334   C330      1.39161      .   S
    C334   H118      1.08886      .   S
    C332   C328      1.39239      .   S
    C332   H116      1.08899      .   S
    C333   C329      1.39230      .   S
    C333   H117      1.08893      .   S
    C331   H115      1.08904      .   S
    C330   H114      1.08896      .   S
    C329   H113      1.08434      .   S
    C328   H112      1.08910      .   S
    O467   Zn15      2.06491      .   S
    O466   Zn14      2.06490      .   S
    O465   Zn13      2.05679      .   S
    O464   Zn12      2.05683      .   S
    C262   C278      1.41122      .   S
    C262   C266      1.39894      .   S
    C260   C276      1.41122      .   S
    C260   C264      1.39891      .   S
    C263   C279      1.41121      .   S
    C263   C267      1.39892      .   S
    C261   C277      1.41123      .   S
    C261   C265      1.39887      .   S
    Zn14   N414      2.07092      .   S
    Zn15   N415      2.07096      .   S
    Zn12   N412      2.07118      .   S
    Zn13   N413      2.07163      .   S
    C278   C274      1.39893      .   S
    C279   C275      1.39881      .   S
    C277   C273      1.39896      .   S
    C276   C272      1.39892      .   S
    H60    C264      1.08971      .   S
    H61    C265      1.08969      .   S
    H62    C266      1.08966      .   S
    H63    C267      1.08961      .   S
    C264   C268      1.38722      .   S
    C265   C269      1.38717      .   S
    C266   C270      1.38722      .   S
    C267   C271      1.38726      .   S
    H147   C383      1.09576      .   S
    H144   C380      1.08908      .   S
    H145   C381      1.08910      .   S
    H146   C382      1.08912      .   S
    C275   H71       1.09100      .   S
    C275   N407      1.34859      .   S
    C274   H70       1.09097      .   S
    C274   N406      1.34857      .   S
    C273   H69       1.09103      .   S
    C273   N405      1.34863      .   S
    C272   H68       1.09104      .   S
    C272   N404      1.34862      .   S
    N414   C382      1.34898      .   S
    N414   C386      1.34863      .   S
    N415   C383      1.34897      .   S
    N415   C387      1.34858      .   S
    N412   C380      1.34924      .   S
    N412   C384      1.34881      .   S
    N413   C381      1.34903      .   S
    N413   C385      1.34857      .   S
    C268   N404      1.34895      .   S
    C268   H64       1.08911      .   S
    C269   N405      1.34899      .   S
    C269   H65       1.08919      .   S
    C270   N406      1.34904      .   S
    C270   H66       1.08918      .   S
    C271   N407      1.34904      .   S
    C271   H67       1.08915      .   S
    H151   C387      1.09102      .   S
    H150   C386      1.09101      .   S
    H149   C385      1.09097      .   S
    H148   C384      1.09100      .   S
    C380   C376      1.38725      .   S
    C381   C377      1.38721      .   S
    C382   C378      1.38716      .   S
    C383   C379      1.38679      .   S
    N406   Zn6       2.07165      .   S
    N407   Zn7       2.07162      .   S
    N404   Zn4       2.07098      .   S
    N405   Zn5       2.07095      .   S
    C387   C391      1.39891      .   S
    C386   C390      1.39882      .   S
    C385   C389      1.39891      .   S
    C384   C388      1.39880      .   S
    C376   H140      1.08968      .   S
    C376   C372      1.39892      .   S
    C377   H141      1.08936      .   S
    C377   C373      1.39895      .   S
    C378   H142      1.08967      .   S
    C378   C374      1.39891      .   S
    C379   H143      1.08955      .   S
    C379   C375      1.39908      .   S
    H34    C218      1.08911      .   S
    H35    C219      1.08911      .   S
    H33    C217      1.09148      .   S
    H32    C216      1.08905      .   S
    H38    C222      1.08893      .   S
    H39    C223      1.08901      .   S
    H36    C220      1.08890      .   S
    H37    C221      1.08886      .   S
    H21    C189      1.08971      .   S
    H20    C188      1.08978      .   S
    H23    C191      1.08971      .   S
    H22    C190      1.08968      .   S
    H17    C185      1.08963      .   S
    H16    C184      1.08957      .   S
    H19    C187      1.08958      .   S
    H18    C186      1.08964      .   S
    C391   C375      1.41126      .   S
    C391   C399      1.50223      .   S
    C390   C374      1.41127      .   S
    C390   C398      1.41232  1_655   S
    C389   C373      1.41121      .   S
    C389   C397      1.50231      .   S
    C388   C372      1.41119      .   S
    C388   C396      1.50232      .   S
    H169   C399      0.92187  1_455   S
    H168   C398      0.99841      .   S
    H171   C397      1.09654      .   S
    H170   C396      1.09654      .   S
    Zn7    O435      2.05672      .   S
    Zn7    O431      2.08369      .   S
    Zn7    O443      2.08832      .   S
    Zn7    O419      2.10211      .   S
    Zn6    O434      2.05679      .   S
    Zn6    O430      2.08140      .   S
    Zn6    O442      2.08834      .   S
    Zn6    O418      2.10206      .   S
    Zn4    O432      2.06480      .   S
    Zn4    O428      2.08265      .   S
    Zn4    O440      2.08153      .   S
    Zn4    O416      2.10146      .   S
    Zn5    O433      2.06486      .   S
    Zn5    O429      2.08267      .   S
    Zn5    O441      2.08150      .   S
    Zn5    O417      2.10149      .   S
    C372   C360      1.48821      .   S
    C374   C362      1.48819      .   S
    C373   C361      1.48821      .   S
    C375   C363      1.48815      .   S
    O435   C211      1.27737      .   S
    O434   C210      1.27695      .   S
    O432   C208      1.27691      .   S
    O433   C209      1.27607      .   S
    C218   C222      1.39235      .   S
    C218   C214      1.36717  1_655   S
    C219   C223      1.39239      .   S
    C219   C215      1.40275      .   S
    C216   C220      1.39160      .   S
    C216   C212      1.40273      .   S
    C217   C221      1.39164      .   S
    C217   C213      1.40279      .   S
    C222   C226      1.40407      .   S
    C223   C227      1.40404      .   S
    C221   C225      1.40404      .   S
    C220   C224      1.40410      .   S
    O430   C206      1.28191      .   S
    O428   C204      1.27302      .   S
    O429   C205      1.27301      .   S
    O431   C207      1.27318      .   S
    C191   C187      1.39262      .   S
    C191   C195      1.40369      .   S
    C189   C185      1.39265      .   S
    C189   C193      1.40365      .   S
    C190   C186      1.39262      .   S
    C190   C194      1.40366      .   S
    C188   C184      1.39265      .   S
    C188   C192      1.40366      .   S
    C187   C183      1.40364      .   S
    C186   C182      1.40372      .   S
    C185   C181      1.40377      .   S
    C184   C180      1.40381      .   S
    O442   C238      1.27451      .   S
    O443   C239      1.27451      .   S
    O441   C237      1.27513      .   S
    O440   C236      1.27507      .   S
    C399   H175      1.05880  1_655   S
    C399   H167      1.09834      .   S
    C398   H174      1.04748      .   S
    C398   H166      1.10664      .   S
    C397   H173      1.10085      .   S
    C397   H165      1.09774      .   S
    C396   H172      1.10088      .   S
    C396   H164      1.09799      .   S
    O419   C179      1.27262      .   S
    O418   C178      1.27254      .   S
    O416   C176      1.27250      .   S
    O417   C177      1.27249      .   S
    H155   C395      1.09998      .   S
    H154   C394      1.10002      .   S
    H153   C393      1.10004      .   S
    H152   C392      1.09988      .   S
    H162   C394      1.09919      .   S
    H160   C392      1.09868      .   S
    H161   C393      1.09923      .   S
    H163   C395      1.09922      .   S
    C395   H158      1.09554      .   S
    C395   C359      1.50143      .   S
    C394   H159      1.17023      .   S
    C394   C358      1.50142      .   S
    C392   H157      1.16765      .   S
    C392   C356      1.50172      .   S
    C393   H156      1.09563      .   S
    C393   C357      1.50136      .   S
    C209   C215      1.25637  1_455   S
    C209   O437      1.27069      .   S
    C208   C214      1.32123      .   S
    C208   O436      1.27032      .   S
    C211   C213      1.50406      .   S
    C211   O439      1.26983      .   S
    C210   C212      1.50406      .   S
    C210   O438      1.26984      .   S
    C214   C234      1.37596  1_455   S
    C215   C235      1.40360      .   S
    C213   C233      1.40337      .   S
    C212   C232      1.40342      .   S
    C204   C192      1.50400      .   S
    C204   O424      1.27393      .   S
    C205   C193      1.50400      .   S
    C205   O425      1.27391      .   S
    C207   C195      1.50401      .   S
    C207   O427      1.27471      .   S
    C206   C194      1.50399      .   S
    C206   O426      1.27474      .   S
    C227   C239      1.50493      .   S
    C227   C231      1.40377      .   S
    C226   C238      1.50489      .   S
    C226   C230      1.40372      .   S
    C225   C237      1.50383      .   S
    C225   C229      1.40337      .   S
    C224   C236      1.50386      .   S
    C224   C228      1.40332      .   S
    C195   C199      1.40344      .   S
    C194   C198      1.40346      .   S
    C193   C197      1.40345      .   S
    C192   C196      1.40344      .   S
    C360   C356      1.40924      .   S
    C360   C364      1.39851      .   S
    C361   C357      1.40920      .   S
    C361   C365      1.39845      .   S
    C362   C358      1.40926      .   S
    C362   C366      1.39845      .   S
    C363   C359      1.40928      .   S
    C363   C367      1.39844      .   S
    C238   O446      1.27273      .   S
    C239   O447      1.27259      .   S
    C237   O445      1.27190      .   S
    C236   O444      1.27192      .   S
    C183   C178      1.50405      .   S
    C183   C203      1.40297      .   S
    C182   C179      1.31292  1_545   S
    C182   C202      1.40299      .   S
    C181   C176      1.50415      .   S
    C181   C201      1.40296      .   S
    C180   C177      1.31177  1_545   S
    C180   C200      1.40295      .   S
    C178   O422      1.27530      .   S
    C179   O423      1.27520      .   S
    C177   O421      1.27552      .   S
    C176   O420      1.27471      .   S
    H132   C364      1.08833      .   S
    H133   C365      1.08835      .   S
    H134   C366      1.08836      .   S
    H135   C367      1.08833      .   S
    C359   C355      1.39720      .   S
    C358   C354      1.39784      .   S
    C357   C353      1.39798      .   S
    C356   C352      1.39790      .   S
    C364   C368      1.38684      .   S
    C365   C369      1.38650      .   S
    C366   C370      1.38683      .   S
    C367   C371      1.38649      .   S
    O438   Zn2       2.10167      .   S
    O439   Zn3       2.10173      .   S
    O437   Zn1       2.09683      .   S
    O436   Zn0       2.09677      .   S
    O425   Zn1       2.07249      .   S
    O424   Zn0       2.07248      .   S
    O427   Zn3       2.07197      .   S
    O426   Zn2       2.07198      .   S
    C235   C231      1.39272      .   S
    C235   H47       0.95671  1_655   S
    C234   C230      1.39267      .   S
    C234   H46       0.90938  1_655   S
    C233   C229      1.39264      .   S
    C233   H45       1.08913      .   S
    C232   C228      1.39262      .   S
    C232   H44       1.08919      .   S
    C230   H42       1.08931      .   S
    C231   H43       1.08923      .   S
    C229   H41       1.08931      .   S
    C228   H40       1.08925      .   S
    O446   Zn2       2.08288      .   S
    O447   Zn3       2.08291      .   S
    O444   Zn0       2.09656      .   S
    O445   Zn1       2.09665      .   S
    C199   C203      1.39235      .   S
    C199   H27       1.08882      .   S
    C198   C202      1.39237      .   S
    C198   H26       1.08886      .   S
    C196   C200      1.39239      .   S
    C196   H24       1.08885      .   S
    C197   C201      1.39239      .   S
    C197   H25       1.08883      .   S
    C203   H31       1.08882      .   S
    C202   H30       1.08878      .   S
    C201   H29       1.08878      .   S
    C200   H28       1.08874      .   S
    O420   Zn0       2.06105      .   S
    O422   Zn2       2.06149      .   S
    O423   Zn3       2.06150      .   S
    O421   Zn1       2.06091      .   S
    C355   H131      1.09105      .   S
    C355   N411      1.34805      .   S
    C354   H130      1.09075      .   S
    C354   N410      1.34776      .   S
    C352   H128      1.09076      .   S
    C352   N408      1.34782      .   S
    C353   H129      1.09015      .   S
    C353   N409      1.34784      .   S
    C369   N409      1.34910      .   S
    C369   H137      1.08889      .   S
    C368   N408      1.34884      .   S
    C368   H136      1.08873      .   S
    C370   N410      1.34884      .   S
    C370   H138      1.08869      .   S
    C371   N411      1.34903      .   S
    C371   H139      1.08889      .   S
    Zn0    Zn4       2.89362      .   S
    Zn1    Zn5       2.89362      .   S
    Zn2    Zn6       2.89820      .   S
    Zn3    Zn7       2.89820      .   S
    Zn8    Zn12      2.89820      .   S
    Zn9    Zn13      2.89820      .   S
    Zn10   Zn14      2.89362      .   S
    Zn11   Zn15      2.89362      .   S
