# CIF file generated by openbabel 2.4.90, see http://openbabel.sf.net
data_I
_chemical_name_common ''
_cell_length_a 7.3995
_cell_length_b 12.889
_cell_length_c 20.85
_cell_angle_alpha 90
_cell_angle_beta 90.001
_cell_angle_gamma 90.056
_space_group_name_H-M_alt 'P 1'
_space_group_name_Hall 'P 1'
loop_
    _symmetry_equiv_pos_as_xyz
    x,y,z
loop_
    _atom_site_label
    _atom_site_type_symbol
    _atom_site_fract_x
    _atom_site_fract_y
    _atom_site_fract_z
    _atom_site_occupancy
    Lv0     Lv   0.66869   0.08755   0.50103   1.000
    Lv1     Lv   0.16853   0.41250   0.99893   1.000
    Lv2     Lv   0.66871   0.08758   0.99903   1.000
    Lv3     Lv   0.83140   0.58754   0.00111   1.000
    Lv4     Lv   0.33124   0.91247   0.49906   1.000
    Lv5     Lv   0.33122   0.91246   0.00097   1.000
    Lv6     Lv   0.16854   0.41251   0.50112   1.000
    Lv7     Lv   0.83140   0.58754   0.49891   1.000
