# CIF file generated by openbabel 2.4.90, see http://openbabel.sf.net
data_I
_chemical_name_common ''
_cell_length_a 7.3995
_cell_length_b 12.889
_cell_length_c 20.85
_cell_angle_alpha 90
_cell_angle_beta 90.001
_cell_angle_gamma 90.056
_space_group_name_H-M_alt 'P 1'
_space_group_name_Hall 'P 1'
loop_
    _symmetry_equiv_pos_as_xyz
    x,y,z
loop_
    _atom_site_label
    _atom_site_type_symbol
    _atom_site_fract_x
    _atom_site_fract_y
    _atom_site_fract_z
    _atom_site_occupancy
    Cu0     Cu   0.24170   0.66203   0.75001   1.000
    Cu1     Cu   0.74164   0.83942   0.75001   1.000
    Cu2     Cu   0.75832   0.33798   0.25002   1.000
    Cu3     Cu   0.25824   0.16068   0.25002   1.000
    S4      S    0.37965   0.07666   0.16243   1.000
    S5      S    0.12017   0.57721   0.83755   1.000
    S6      S    0.62004   0.92356   0.66250   1.000
    S7      S    0.87958   0.42274   0.33759   1.000
    S8      S    0.62025   0.92344   0.83758   1.000
    S9      S    0.87978   0.42279   0.16247   1.000
    S10     S    0.37961   0.07669   0.33762   1.000
    S11     S    0.12039   0.57733   0.66244   1.000
    I12     I    0.89451   0.14475   0.24999   1.000
    I13     I    0.60559   0.64571   0.75004   1.000
    I14     I    0.10555   0.85529   0.75006   1.000
    I15     I    0.39450   0.35435   0.25005   1.000
loop_
    _geom_bond_atom_site_label_1
    _geom_bond_atom_site_label_2
    _geom_bond_distance
    _geom_bond_site_symmetry_2
    _ccdc_geom_bond_type
    S4     Cu3       2.30578      .   S
    S9     Cu2       2.30936      .   S
    I12    Cu2       2.68767      .   S
    Cu3    I15       2.69129      .   S
    Cu3    S10       2.30577      .   S
    Cu2    S7        2.30864      .   S
    S11    Cu0       2.30871      .   S
    S6     Cu1       2.30574      .   S
    Cu1    I13       2.69120      .   S
    Cu1    S8        2.30546      .   S
    Cu0    I14       2.68786      .   S
    Cu0    S5        2.30933      .   S
