# CIF file generated by openbabel 2.4.90, see http://openbabel.sf.net
data_I
_chemical_name_common ''
_cell_length_a 7.3995
_cell_length_b 12.889
_cell_length_c 20.85
_cell_angle_alpha 90
_cell_angle_beta 90.001
_cell_angle_gamma 90.056
_space_group_name_H-M_alt 'P 1'
_space_group_name_Hall 'P 1'
loop_
    _symmetry_equiv_pos_as_xyz
    x,y,z
loop_
    _atom_site_label
    _atom_site_type_symbol
    _atom_site_fract_x
    _atom_site_fract_y
    _atom_site_fract_z
    _atom_site_occupancy
    C0      C    0.25824   0.16068   0.25002   1.000
    C1      C    0.24170   0.66203   0.75001   1.000
    C2      C    0.74164   0.83942   0.75001   1.000
    C3      C    0.75832   0.33798   0.25002   1.000
    C4      C    0.38151   0.83735   0.10853   1.000
    C5      C    0.52074   0.75599   0.01317   1.000
    C6      C    0.28140   0.98911   0.89258   1.000
    C7      C    0.14828   0.07310   0.98830   1.000
    C8      C    0.10275   0.08584   0.09964   1.000
    C9      C    0.12230   0.97387   0.14787   1.000
    C10     C    0.38248   0.23159   0.09579   1.000
    C11     C    0.57543   0.21476   0.14483   1.000
    C12     C    0.11791   0.33759   0.89134   1.000
    C13     C    0.97903   0.25585   0.98663   1.000
    C14     C    0.21858   0.48901   0.10737   1.000
    C15     C    0.35162   0.57325   0.01170   1.000
    C16     C    0.39708   0.58624   0.90034   1.000
    C17     C    0.37716   0.47438   0.85203   1.000
    C18     C    0.11751   0.73200   0.90429   1.000
    C19     C    0.92450   0.71506   0.85537   1.000
    C20     C    0.61845   0.16266   0.60856   1.000
    C21     C    0.47928   0.24405   0.51320   1.000
    C22     C    0.71841   0.01082   0.39264   1.000
    C23     C    0.85167   0.92691   0.48836   1.000
    C24     C    0.89687   0.91407   0.59974   1.000
    C25     C    0.87768   0.02614   0.64790   1.000
    C26     C    0.61757   0.76861   0.59591   1.000
    C27     C    0.42443   0.78536   0.64487   1.000
    C28     C    0.88196   0.66247   0.39133   1.000
    C29     C    0.02107   0.74412   0.48664   1.000
    C30     C    0.78145   0.51097   0.60733   1.000
    C31     C    0.64828   0.42678   0.51165   1.000
    C32     C    0.60255   0.41389   0.40038   1.000
    C33     C    0.62270   0.52567   0.35202   1.000
    C34     C    0.88252   0.26799   0.40441   1.000
    C35     C    0.07547   0.28497   0.35540   1.000
    C36     C    0.61848   0.16268   0.89148   1.000
    C37     C    0.47923   0.24405   0.98682   1.000
    C38     C    0.71846   0.01091   0.10743   1.000
    C39     C    0.85168   0.92695   0.01172   1.000
    C40     C    0.89716   0.91417   0.90037   1.000
    C41     C    0.87769   0.02615   0.85215   1.000
    C42     C    0.61736   0.76843   0.90418   1.000
    C43     C    0.42441   0.78535   0.85516   1.000
    C44     C    0.88191   0.66247   0.10872   1.000
    C45     C    0.02108   0.74415   0.01338   1.000
    C46     C    0.78137   0.51104   0.89269   1.000
    C47     C    0.64826   0.42681   0.98836   1.000
    C48     C    0.60279   0.41382   0.09971   1.000
    C49     C    0.62281   0.52564   0.14805   1.000
    C50     C    0.88231   0.26809   0.09565   1.000
    C51     C    0.07556   0.28494   0.14469   1.000
    C52     C    0.38157   0.83733   0.39150   1.000
    C53     C    0.52076   0.75599   0.48687   1.000
    C54     C    0.28136   0.98912   0.60742   1.000
    C55     C    0.14828   0.07310   0.51169   1.000
    C56     C    0.10273   0.08583   0.40043   1.000
    C57     C    0.12224   0.97390   0.35216   1.000
    C58     C    0.38256   0.23160   0.40428   1.000
    C59     C    0.57547   0.21474   0.35523   1.000
    C60     C    0.11792   0.33757   0.60872   1.000
    C61     C    0.97881   0.25596   0.51337   1.000
    C62     C    0.21847   0.48908   0.39272   1.000
    C63     C    0.35163   0.57326   0.48839   1.000
    C64     C    0.39732   0.58619   0.59963   1.000
    C65     C    0.37729   0.47443   0.64803   1.000
    C66     C    0.11748   0.73207   0.59562   1.000
    C67     C    0.92453   0.71509   0.64462   1.000
    C68     C    0.35647   0.87026   0.06111   1.000
    C69     C    0.43476   0.82416   0.00728   1.000
    C70     C    0.41350   0.86804   0.94613   1.000
    C71     C    0.30153   0.95502   0.93990   1.000
    C72     C    0.22713   0.00224   0.99380   1.000
    C73     C    0.25772   0.96266   0.05547   1.000
    C74     C    0.19488   0.02279   0.11311   1.000
    C75     C    0.48509   0.17494   0.11066   1.000
    C76     C    0.14313   0.37042   0.93878   1.000
    C77     C    0.06500   0.32410   0.99259   1.000
    C78     C    0.08637   0.36788   0.05378   1.000
    C79     C    0.19835   0.45498   0.06004   1.000
    C80     C    0.27273   0.50233   0.00616   1.000
    C81     C    0.24186   0.46294   0.94445   1.000
    C82     C    0.30476   0.52321   0.88684   1.000
    C83     C    0.01485   0.67527   0.88945   1.000
    C84     C    0.64350   0.12977   0.56113   1.000
    C85     C    0.56522   0.17587   0.50731   1.000
    C86     C    0.58644   0.13195   0.44618   1.000
    C87     C    0.69835   0.04494   0.43996   1.000
    C88     C    0.77284   0.99777   0.49386   1.000
    C89     C    0.74222   0.03736   0.55551   1.000
    C90     C    0.80494   0.97723   0.61317   1.000
    C91     C    0.51481   0.82520   0.61072   1.000
    C92     C    0.85681   0.62961   0.43877   1.000
    C93     C    0.93502   0.67589   0.49258   1.000
    C94     C    0.91367   0.63209   0.55375   1.000
    C95     C    0.80167   0.54501   0.56000   1.000
    C96     C    0.72723   0.49768   0.50613   1.000
    C97     C    0.75800   0.53713   0.44445   1.000
    C98     C    0.69501   0.47684   0.38685   1.000
    C99     C    0.98506   0.32477   0.38951   1.000
    C100    C    0.64351   0.12978   0.93890   1.000
    C101    C    0.56521   0.17589   0.99272   1.000
    C102    C    0.58641   0.13199   0.05388   1.000
    C103    C    0.69836   0.04500   0.06011   1.000
    C104    C    0.77284   0.99781   0.00622   1.000
    C105    C    0.74226   0.03738   0.94455   1.000
    C106    C    0.80507   0.97723   0.88691   1.000
    C107    C    0.51480   0.82512   0.88934   1.000
    C108    C    0.85677   0.62963   0.06128   1.000
    C109    C    0.93497   0.67593   0.00747   1.000
    C110    C    0.91363   0.63214   0.94628   1.000
    C111    C    0.80161   0.54505   0.94003   1.000
    C112    C    0.72721   0.49771   0.99390   1.000
    C113    C    0.75801   0.53713   0.05561   1.000
    C114    C    0.69516   0.47683   0.11322   1.000
    C115    C    0.98503   0.32478   0.11054   1.000
    C116    C    0.35652   0.87024   0.43893   1.000
    C117    C    0.43479   0.82416   0.49276   1.000
    C118    C    0.41351   0.86805   0.55390   1.000
    C119    C    0.30154   0.95503   0.56010   1.000
    C120    C    0.22711   0.00223   0.50621   1.000
    C121    C    0.25775   0.96264   0.44456   1.000
    C122    C    0.19485   0.02279   0.38694   1.000
    C123    C    0.48512   0.17493   0.38940   1.000
    C124    C    0.14311   0.37041   0.56128   1.000
    C125    C    0.06495   0.32413   0.50745   1.000
    C126    C    0.08628   0.36794   0.44629   1.000
    C127    C    0.19826   0.45504   0.44005   1.000
    C128    C    0.27273   0.50234   0.49392   1.000
    C129    C    0.24189   0.46291   0.55560   1.000
    C130    C    0.30493   0.52321   0.61318   1.000
    C131    C    0.01491   0.67530   0.61051   1.000
    C132    C    0.37965   0.07666   0.16243   1.000
    C133    C    0.12017   0.57721   0.83755   1.000
    C134    C    0.62004   0.92356   0.66250   1.000
    C135    C    0.87958   0.42274   0.33759   1.000
    C136    C    0.62025   0.92344   0.83758   1.000
    C137    C    0.87978   0.42279   0.16247   1.000
    C138    C    0.37961   0.07669   0.33762   1.000
    C139    C    0.12039   0.57733   0.66244   1.000
    C140    C    0.89451   0.14475   0.24999   1.000
    C141    C    0.60559   0.64571   0.75004   1.000
    C142    C    0.10555   0.85529   0.75006   1.000
    C143    C    0.39450   0.35435   0.25005   1.000
    O144    O    0.31217   0.53779   0.00893   1.000
    O145    O    0.23554   0.47865   0.03310   1.000
    O146    O    0.25729   0.48263   0.97530   1.000
    O147    O    0.81226   0.96238   0.00897   1.000
    O148    O    0.73560   0.02140   0.03317   1.000
    O149    O    0.75755   0.01760   0.97539   1.000
    O150    O    0.47775   0.79007   0.01023   1.000
    O151    O    0.39561   0.84721   0.03420   1.000
    O152    O    0.42413   0.84610   0.97671   1.000
    O153    O    0.97802   0.71004   0.01043   1.000
    O154    O    0.89587   0.65278   0.03438   1.000
    O155    O    0.92430   0.65403   0.97688   1.000
    O156    O    0.14236   0.41143   0.05691   1.000
    O157    O    0.03570   0.34633   0.08216   1.000
    O158    O    0.07568   0.34599   0.02319   1.000
    O159    O    0.64239   0.08850   0.05699   1.000
    O160    O    0.53575   0.15347   0.08227   1.000
    O161    O    0.57581   0.15394   0.02330   1.000
    O162    O    0.30709   0.91646   0.05829   1.000
    O163    O    0.22630   0.99273   0.08429   1.000
    O164    O    0.24242   0.98245   0.02463   1.000
    O165    O    0.80739   0.58338   0.05845   1.000
    O166    O    0.72659   0.50698   0.08441   1.000
    O167    O    0.74261   0.51742   0.02476   1.000
    O168    O    0.20847   0.47199   0.08370   1.000
    O169    O    0.70841   0.02796   0.08377   1.000
    O170    O    0.36899   0.85380   0.08482   1.000
    O171    O    0.86934   0.64605   0.08500   1.000
    O172    O    0.93367   0.29644   0.10310   1.000
    O173    O    0.43379   0.20327   0.10322   1.000
    O174    O    0.14882   0.05432   0.10637   1.000
    O175    O    0.64897   0.44532   0.10646   1.000
    O176    O    0.03029   0.30486   0.12762   1.000
    O177    O    0.93240   0.37379   0.13650   1.000
    O178    O    0.53026   0.19485   0.12774   1.000
    O179    O    0.43237   0.12580   0.13654   1.000
    O180    O    0.15859   0.99833   0.13049   1.000
    O181    O    0.28726   0.04973   0.13777   1.000
    O182    O    0.65898   0.50123   0.13063   1.000
    O183    O    0.78747   0.44981   0.13784   1.000
    O184    O    0.31895   0.11867   0.20623   1.000
    O185    O    0.81905   0.38039   0.20625   1.000
    O186    O    0.82642   0.24137   0.25001   1.000
    O187    O    0.32637   0.25752   0.25003   1.000
    O188    O    0.31892   0.11868   0.29382   1.000
    O189    O    0.81895   0.38036   0.29381   1.000
    O190    O    0.78730   0.44979   0.36222   1.000
    O191    O    0.93232   0.37375   0.36355   1.000
    O192    O    0.28723   0.04974   0.36228   1.000
    O193    O    0.43236   0.12581   0.36351   1.000
    O194    O    0.65886   0.50126   0.36944   1.000
    O195    O    0.15855   0.99835   0.36955   1.000
    O196    O    0.53030   0.19483   0.37232   1.000
    O197    O    0.03026   0.30487   0.37245   1.000
    O198    O    0.64878   0.44537   0.39362   1.000
    O199    O    0.72651   0.50698   0.41565   1.000
    O200    O    0.14879   0.05431   0.39368   1.000
    O201    O    0.22630   0.99271   0.41575   1.000
    O202    O    0.43384   0.20326   0.39684   1.000
    O203    O    0.53578   0.15344   0.41779   1.000
    O204    O    0.93379   0.29638   0.39696   1.000
    O205    O    0.03567   0.34635   0.41790   1.000
    O206    O    0.86938   0.64604   0.41505   1.000
    O207    O    0.36905   0.85379   0.41521   1.000
    O208    O    0.70838   0.02788   0.41630   1.000
    O209    O    0.20837   0.47206   0.41638   1.000
    O210    O    0.80741   0.58337   0.44161   1.000
    O211    O    0.89591   0.65275   0.46567   1.000
    O212    O    0.30713   0.91644   0.44174   1.000
    O213    O    0.39565   0.84720   0.46584   1.000
    O214    O    0.64239   0.08845   0.44307   1.000
    O215    O    0.73559   0.02136   0.46691   1.000
    O216    O    0.14227   0.41149   0.44317   1.000
    O217    O    0.23550   0.47869   0.46699   1.000
    O218    O    0.74262   0.51740   0.47529   1.000
    O219    O    0.24243   0.98243   0.47538   1.000
    O220    O    0.57583   0.15391   0.47674   1.000
    O221    O    0.07561   0.34603   0.47687   1.000
    O222    O    0.97804   0.71001   0.48961   1.000
    O223    O    0.47778   0.79007   0.48982   1.000
    O224    O    0.81226   0.96234   0.49111   1.000
    O225    O    0.31218   0.53780   0.49116   1.000
    O226    O    0.92434   0.65399   0.52316   1.000
    O227    O    0.42415   0.84611   0.52333   1.000
    O228    O    0.75753   0.01756   0.52468   1.000
    O229    O    0.25731   0.48263   0.52476   1.000
    O230    O    0.68775   0.46223   0.50889   1.000
    O231    O    0.76445   0.52134   0.53306   1.000
    O232    O    0.18769   0.03767   0.50895   1.000
    O233    O    0.26432   0.97863   0.53315   1.000
    O234    O    0.52225   0.20996   0.51025   1.000
    O235    O    0.60436   0.15282   0.53422   1.000
    O236    O    0.02188   0.29005   0.51041   1.000
    O237    O    0.10403   0.34727   0.53437   1.000
    O238    O    0.85767   0.58855   0.55687   1.000
    O239    O    0.96429   0.65369   0.58213   1.000
    O240    O    0.35752   0.91154   0.55700   1.000
    O241    O    0.46416   0.84663   0.58231   1.000
    O242    O    0.69286   0.08356   0.55832   1.000
    O243    O    0.77358   0.00729   0.58434   1.000
    O244    O    0.19250   0.41666   0.55844   1.000
    O245    O    0.27341   0.49306   0.58439   1.000
    O246    O    0.79156   0.52799   0.58367   1.000
    O247    O    0.29145   0.97208   0.58376   1.000
    O248    O    0.63097   0.14621   0.58484   1.000
    O249    O    0.13051   0.35399   0.58500   1.000
    O250    O    0.06620   0.70368   0.60306   1.000
    O251    O    0.56619   0.79691   0.60331   1.000
    O252    O    0.35113   0.55470   0.60641   1.000
    O253    O    0.85090   0.94565   0.60645   1.000
    O254    O    0.96972   0.69520   0.62757   1.000
    O255    O    0.06765   0.62631   0.63647   1.000
    O256    O    0.46962   0.80528   0.62779   1.000
    O257    O    0.56742   0.87438   0.63661   1.000
    O258    O    0.84131   0.00168   0.63053   1.000
    O259    O    0.71249   0.95040   0.63783   1.000
    O260    O    0.34111   0.49882   0.63060   1.000
    O261    O    0.21266   0.55027   0.63781   1.000
    O262    O    0.18104   0.61968   0.70623   1.000
    O263    O    0.68084   0.88149   0.70626   1.000
    O264    O    0.67361   0.74257   0.75002   1.000
    O265    O    0.68094   0.88143   0.79380   1.000
    O266    O    0.17363   0.75866   0.75004   1.000
    O267    O    0.18094   0.61962   0.79378   1.000
    O268    O    0.21246   0.55021   0.86219   1.000
    O269    O    0.06751   0.62624   0.86350   1.000
    O270    O    0.71266   0.95033   0.86225   1.000
    O271    O    0.56752   0.87428   0.86346   1.000
    O272    O    0.34096   0.49880   0.86943   1.000
    O273    O    0.84138   0.00169   0.86953   1.000
    O274    O    0.46960   0.80524   0.87225   1.000
    O275    O    0.96968   0.69516   0.87241   1.000
    O276    O    0.35092   0.55472   0.89359   1.000
    O277    O    0.27331   0.49307   0.91564   1.000
    O278    O    0.85112   0.94570   0.89364   1.000
    O279    O    0.77367   0.00731   0.91573   1.000
    O280    O    0.56608   0.79678   0.89676   1.000
    O281    O    0.46415   0.84658   0.91773   1.000
    O282    O    0.06618   0.70363   0.89687   1.000
    O283    O    0.96424   0.65370   0.91787   1.000
    O284    O    0.13052   0.35401   0.91506   1.000
    O285    O    0.63099   0.14623   0.91519   1.000
    O286    O    0.29147   0.97207   0.91624   1.000
    O287    O    0.79149   0.52805   0.91636   1.000
    O288    O    0.19249   0.41668   0.94162   1.000
    O289    O    0.10406   0.34726   0.96569   1.000
    O290    O    0.69288   0.08358   0.94173   1.000
    O291    O    0.60436   0.15283   0.96581   1.000
    O292    O    0.35752   0.91153   0.94302   1.000
    O293    O    0.26433   0.97863   0.96685   1.000
    O294    O    0.85762   0.58859   0.94316   1.000
    O295    O    0.76441   0.52138   0.96697   1.000
    O296    O    0.02201   0.28997   0.98961   1.000
    O297    O    0.52222   0.20997   0.98977   1.000
    O298    O    0.18770   0.03767   0.99105   1.000
    O299    O    0.68773   0.46226   0.99113   1.000
loop_
    _geom_bond_atom_site_label_1
    _geom_bond_atom_site_label_2
    _geom_bond_distance
    _geom_bond_site_symmetry_2
    _ccdc_geom_bond_type
    C80    O144      0.54513      .   S
    C15    O144      0.54513      .   S
    C80    O145      0.69581      .   S
    C79    O145      0.69581      .   S
    C80    O146      0.70093  1_554   S
    C81    O146      0.70093      .   S
    C104   O147      0.54512      .   S
    C39    O147      0.54512      .   S
    C104   O148      0.69584  1_565   S
    C103   O148      0.69584      .   S
    C104   O149      0.70092  1_564   S
    C105   O149      0.70092      .   S
    C69    O150      0.54610      .   S
    C5     O150      0.54610      .   S
    C69    O151      0.69800      .   S
    C68    O151      0.69800      .   S
    C69    O152      0.70189  1_554   S
    C70    O152      0.70189      .   S
    C109   O153      0.54618      .   S
    C45    O153      0.54618  1_455   S
    C109   O154      0.69802      .   S
    C108   O154      0.69802      .   S
    C109   O155      0.70194  1_554   S
    C110   O155      0.70194      .   S
    C78    O156      0.70036      .   S
    C79    O156      0.70036      .   S
    C78    O157      0.75343      .   S
    C115   O157      0.75343  1_655   S
    C78    O158      0.70192      .   S
    C77    O158      0.70192  1_556   S
    C102   O159      0.70035      .   S
    C103   O159      0.70035      .   S
    C102   O160      0.75350      .   S
    C75    O160      0.75350      .   S
    C102   O161      0.70188      .   S
    C101   O161      0.70188  1_556   S
    C73    O162      0.70137      .   S
    C68    O162      0.70137      .   S
    C73    O163      0.75200      .   S
    C74    O163      0.75200  1_545   S
    C73    O164      0.70093      .   S
    C72    O164      0.70093  1_546   S
    C113   O165      0.70141      .   S
    C108   O165      0.70141      .   S
    C113   O166      0.75204      .   S
    C114   O166      0.75204      .   S
    C113   O167      0.70092      .   S
    C112   O167      0.70092  1_556   S
    C79    O168      0.54518      .   S
    C14    O168      0.54518      .   S
    C103   O169      0.54517      .   S
    C38    O169      0.54517      .   S
    C68    O170      0.54590      .   S
    C4     O170      0.54590      .   S
    C108   O171      0.54591      .   S
    C44    O171      0.54591      .   S
    C50    O172      0.54925      .   S
    C115   O172      0.54925      .   S
    C10    O173      0.54925      .   S
    C75    O173      0.54925      .   S
    C8     O174      0.54885      .   S
    C74    O174      0.54885      .   S
    C48    O175      0.54885      .   S
    C114   O175      0.54885      .   S
    C115   O176      0.55232  1_655   S
    C51    O176      0.55232      .   S
    C115   O177      0.91880      .   S
    C137   O177      0.91880      .   S
    C75    O178      0.55166      .   S
    C11    O178      0.55166      .   S
    C75    O179      0.91878      .   S
    C132   O179      0.91878      .   S
    C74    O180      0.55017  1_545   S
    C9     O180      0.55017      .   S
    C74    O181      0.92293      .   S
    C132   O181      0.92293      .   S
    C114   O182      0.55011      .   S
    C49    O182      0.55011      .   S
    C114   O183      0.92299      .   S
    C137   O183      0.92299      .   S
    C132   O184      1.15289      .   S
    C0     O184      1.15289      .   S
    C137   O185      1.15468      .   S
    C3     O185      1.15468      .   S
    C140   O186      1.34384      .   S
    C3     O186      1.34384      .   S
    C0     O187      1.34564      .   S
    C143   O187      1.34564      .   S
    C0     O188      1.15288      .   S
    C138   O188      1.15288      .   S
    C3     O189      1.15432      .   S
    C135   O189      1.15432      .   S
    C135   O190      0.92310      .   S
    C98    O190      0.92310      .   S
    C135   O191      0.91890      .   S
    C99    O191      0.91890      .   S
    C138   O192      0.92289      .   S
    C122   O192      0.92289      .   S
    C138   O193      0.91877      .   S
    C123   O193      0.91877      .   S
    C33    O194      0.55010      .   S
    C98    O194      0.55010      .   S
    C57    O195      0.55017      .   S
    C122   O195      0.55017  1_545   S
    C59    O196      0.55165      .   S
    C123   O196      0.55165      .   S
    C35    O197      0.55167      .   S
    C99    O197      0.55167  1_655   S
    C98    O198      0.54885      .   S
    C32    O198      0.54885      .   S
    C98    O199      0.75202      .   S
    C97    O199      0.75202      .   S
    C122   O200      0.54886      .   S
    C56    O200      0.54886      .   S
    C122   O201      0.75198  1_545   S
    C121   O201      0.75198      .   S
    C123   O202      0.54927      .   S
    C58    O202      0.54927      .   S
    C123   O203      0.75350      .   S
    C86    O203      0.75350      .   S
    C99    O204      0.54925      .   S
    C34    O204      0.54925      .   S
    C99    O205      0.75350  1_655   S
    C126   O205      0.75350      .   S
    C28    O206      0.54591      .   S
    C92    O206      0.54591      .   S
    C52    O207      0.54592      .   S
    C116   O207      0.54592      .   S
    C22    O208      0.54518      .   S
    C87    O208      0.54518      .   S
    C62    O209      0.54516      .   S
    C127   O209      0.54516      .   S
    C92    O210      0.70141      .   S
    C97    O210      0.70141      .   S
    C92    O211      0.69804      .   S
    C93    O211      0.69804      .   S
    C116   O212      0.70138      .   S
    C121   O212      0.70138      .   S
    C116   O213      0.69802      .   S
    C117   O213      0.69802      .   S
    C87    O214      0.70035      .   S
    C86    O214      0.70035      .   S
    C87    O215      0.69586      .   S
    C88    O215      0.69586  1_565   S
    C127   O216      0.70036      .   S
    C126   O216      0.70036      .   S
    C127   O217      0.69577      .   S
    C128   O217      0.69577      .   S
    C97    O218      0.70069      .   S
    C96    O218      0.70069      .   S
    C121   O219      0.70073      .   S
    C120   O219      0.70073  1_545   S
    C86    O220      0.70171      .   S
    C85    O220      0.70171      .   S
    C126   O221      0.70176      .   S
    C125   O221      0.70176      .   S
    C29    O222      0.54617  1_455   S
    C93    O222      0.54617      .   S
    C53    O223      0.54611      .   S
    C117   O223      0.54611      .   S
    C23    O224      0.54513      .   S
    C88    O224      0.54513      .   S
    C63    O225      0.54513      .   S
    C128   O225      0.54513      .   S
    C93    O226      0.70173      .   S
    C94    O226      0.70173      .   S
    C117   O227      0.70176      .   S
    C118   O227      0.70176      .   S
    C88    O228      0.70075  1_565   S
    C89    O228      0.70075      .   S
    C128   O229      0.70072      .   S
    C129   O229      0.70072      .   S
    C96    O230      0.54513      .   S
    C31    O230      0.54513      .   S
    C96    O231      0.69580      .   S
    C95    O231      0.69580      .   S
    C120   O232      0.54512      .   S
    C55    O232      0.54512      .   S
    C120   O233      0.69580  1_545   S
    C119   O233      0.69580      .   S
    C85    O234      0.54610      .   S
    C21    O234      0.54610      .   S
    C85    O235      0.69796      .   S
    C84    O235      0.69796      .   S
    C125   O236      0.54597      .   S
    C61    O236      0.54597  1_655   S
    C125   O237      0.69805      .   S
    C124   O237      0.69805      .   S
    C94    O238      0.70034      .   S
    C95    O238      0.70034      .   S
    C94    O239      0.75355      .   S
    C131   O239      0.75355  1_455   S
    C118   O240      0.70034      .   S
    C119   O240      0.70034      .   S
    C118   O241      0.75351      .   S
    C91    O241      0.75351      .   S
    C89    O242      0.70137      .   S
    C84    O242      0.70137      .   S
    C89    O243      0.75199      .   S
    C90    O243      0.75199  1_565   S
    C129   O244      0.70141      .   S
    C124   O244      0.70141      .   S
    C129   O245      0.75202      .   S
    C130   O245      0.75202      .   S
    C95    O246      0.54516      .   S
    C30    O246      0.54516      .   S
    C119   O247      0.54515      .   S
    C54    O247      0.54515      .   S
    C84    O248      0.54591      .   S
    C20    O248      0.54591      .   S
    C124   O249      0.54591      .   S
    C60    O249      0.54591      .   S
    C66    O250      0.54926      .   S
    C131   O250      0.54926      .   S
    C26    O251      0.54923      .   S
    C91    O251      0.54923      .   S
    C64    O252      0.54886      .   S
    C130   O252      0.54886      .   S
    C24    O253      0.54883      .   S
    C90    O253      0.54883      .   S
    C131   O254      0.55157  1_455   S
    C67    O254      0.55157      .   S
    C131   O255      0.91891      .   S
    C139   O255      0.91891      .   S
    C91    O256      0.55165      .   S
    C27    O256      0.55165      .   S
    C91    O257      0.91886      .   S
    C134   O257      0.91886      .   S
    C90    O258      0.55019  1_565   S
    C25    O258      0.55019      .   S
    C90    O259      0.92287      .   S
    C134   O259      0.92287      .   S
    C130   O260      0.55011      .   S
    C65    O260      0.55011      .   S
    C130   O261      0.92298      .   S
    C139   O261      0.92298      .   S
    C139   O262      1.15435      .   S
    C1     O262      1.15435      .   S
    C134   O263      1.15287      .   S
    C2     O263      1.15287      .   S
    C2     O264      1.34560      .   S
    C141   O264      1.34560      .   S
    C2     O265      1.15273      .   S
    C136   O265      1.15273      .   S
    C1     O266      1.34393      .   S
    C142   O266      1.34393      .   S
    C1     O267      1.15467      .   S
    C133   O267      1.15467      .   S
    C133   O268      0.92301      .   S
    C82    O268      0.92301      .   S
    C133   O269      0.91893      .   S
    C83    O269      0.91893      .   S
    C136   O270      0.92291      .   S
    C106   O270      0.92291      .   S
    C136   O271      0.91884      .   S
    C107   O271      0.91884      .   S
    C17    O272      0.55011      .   S
    C82    O272      0.55011      .   S
    C41    O273      0.55019      .   S
    C106   O273      0.55019  1_565   S
    C43    O274      0.55166      .   S
    C107   O274      0.55166      .   S
    C19    O275      0.55121      .   S
    C83    O275      0.55121  1_455   S
    C82    O276      0.54884      .   S
    C16    O276      0.54884      .   S
    C82    O277      0.75206      .   S
    C81    O277      0.75206      .   S
    C106   O278      0.54884      .   S
    C40    O278      0.54884      .   S
    C106   O279      0.75199  1_565   S
    C105   O279      0.75199      .   S
    C107   O280      0.54924      .   S
    C42    O280      0.54924      .   S
    C107   O281      0.75346      .   S
    C70    O281      0.75346      .   S
    C83    O282      0.54923      .   S
    C18    O282      0.54923      .   S
    C83    O283      0.75393  1_455   S
    C110   O283      0.75393      .   S
    C12    O284      0.54590      .   S
    C76    O284      0.54590      .   S
    C36    O285      0.54590      .   S
    C100   O285      0.54590      .   S
    C6     O286      0.54516      .   S
    C71    O286      0.54516      .   S
    C46    O287      0.54517      .   S
    C111   O287      0.54517      .   S
    C76    O288      0.70140      .   S
    C81    O288      0.70140      .   S
    C76    O289      0.69803      .   S
    C77    O289      0.69803      .   S
    C100   O290      0.70136      .   S
    C105   O290      0.70136      .   S
    C100   O291      0.69800      .   S
    C101   O291      0.69800      .   S
    C71    O292      0.70035      .   S
    C70    O292      0.70035      .   S
    C71    O293      0.69583      .   S
    C72    O293      0.69583  1_545   S
    C111   O294      0.70036      .   S
    C110   O294      0.70036      .   S
    C111   O295      0.69581      .   S
    C112   O295      0.69581      .   S
    C13    O296      0.54604  1_655   S
    C77    O296      0.54604      .   S
    C37    O297      0.54610      .   S
    C101   O297      0.54610      .   S
    C7     O298      0.54512      .   S
    C72    O298      0.54512      .   S
    C47    O299      0.54513      .   S
    C112   O299      0.54513      .   S
