# CIF file generated by openbabel 2.4.90, see http://openbabel.sf.net
data_I
_chemical_name_common ''
_cell_length_a 7.3995
_cell_length_b 12.889
_cell_length_c 20.85
_cell_angle_alpha 90
_cell_angle_beta 90.001
_cell_angle_gamma 90.056
_space_group_name_H-M_alt 'P 1'
_space_group_name_Hall 'P 1'
loop_
    _symmetry_equiv_pos_as_xyz
    x,y,z
loop_
    _atom_site_label
    _atom_site_type_symbol
    _atom_site_fract_x
    _atom_site_fract_y
    _atom_site_fract_z
    _atom_site_occupancy
    Zr0     Zr   0.25824   0.16068   0.25002   1.000
    Zr1     Zr   0.24170   0.66203   0.75001   1.000
    Zr2     Zr   0.74164   0.83942   0.75001   1.000
    Zr3     Zr   0.75832   0.33798   0.25002   1.000
    Zr4     Zr   0.37965   0.07666   0.16243   1.000
    Zr5     Zr   0.12017   0.57721   0.83755   1.000
    Zr6     Zr   0.62004   0.92356   0.66250   1.000
    Zr7     Zr   0.87958   0.42274   0.33759   1.000
    Zr8     Zr   0.62025   0.92344   0.83758   1.000
    Zr9     Zr   0.87978   0.42279   0.16247   1.000
    Zr10    Zr   0.37961   0.07669   0.33762   1.000
    Zr11    Zr   0.12039   0.57733   0.66244   1.000
    Zr12    Zr   0.89451   0.14475   0.24999   1.000
    Zr13    Zr   0.60559   0.64571   0.75004   1.000
    Zr14    Zr   0.10555   0.85529   0.75006   1.000
    Zr15    Zr   0.39450   0.35435   0.25005   1.000
    O16     O    0.31895   0.11867   0.20623   1.000
    O17     O    0.81905   0.38039   0.20625   1.000
    O18     O    0.82642   0.24137   0.25001   1.000
    O19     O    0.32637   0.25752   0.25003   1.000
    O20     O    0.31892   0.11868   0.29382   1.000
    O21     O    0.81895   0.38036   0.29381   1.000
    O22     O    0.18104   0.61968   0.70623   1.000
    O23     O    0.68084   0.88149   0.70626   1.000
    O24     O    0.67361   0.74257   0.75002   1.000
    O25     O    0.68094   0.88143   0.79380   1.000
    O26     O    0.17363   0.75866   0.75004   1.000
    O27     O    0.18094   0.61962   0.79378   1.000
    N28     N    0.66869   0.08755   0.50103   1.000
    O29     O    0.55053   0.10668   0.43227   1.000
    O30     O    0.69059   0.01897   0.56943   1.000
    N31     N    0.16853   0.41250   0.99893   1.000
    O32     O    0.19050   0.48135   0.93056   1.000
    O33     O    0.05047   0.39314   0.06772   1.000
    N34     N    0.66871   0.08758   0.99903   1.000
    O35     O    0.55054   0.10669   0.06779   1.000
    O36     O    0.69068   0.01896   0.93064   1.000
    N37     N    0.83140   0.58754   0.00111   1.000
    O38     O    0.94946   0.60689   0.93230   1.000
    O39     O    0.80944   0.51868   0.06948   1.000
    N40     N    0.33124   0.91247   0.49906   1.000
    O41     O    0.30923   0.98111   0.43067   1.000
    O42     O    0.44933   0.89343   0.56783   1.000
    N43     N    0.33122   0.91246   0.00097   1.000
    O44     O    0.30924   0.98109   0.06937   1.000
    O45     O    0.44937   0.89337   0.93222   1.000
    N46     N    0.16854   0.41251   0.50112   1.000
    O47     O    0.19060   0.48139   0.56947   1.000
    O48     O    0.05043   0.39313   0.43234   1.000
    N49     N    0.83140   0.58754   0.49891   1.000
    O50     O    0.94952   0.60692   0.56769   1.000
    O51     O    0.80935   0.51866   0.43057   1.000
loop_
    _geom_bond_atom_site_label_1
    _geom_bond_atom_site_label_2
    _geom_bond_distance
    _geom_bond_site_symmetry_2
    _ccdc_geom_bond_type
    Zr4    O16       1.15289      .   S
    Zr0    O16       1.15289      .   S
    Zr9    O17       1.15468      .   S
    Zr3    O17       1.15468      .   S
    Zr12   O18       1.34384      .   S
    Zr3    O18       1.34384      .   S
    Zr0    O19       1.34564      .   S
    Zr15   O19       1.34564      .   S
    Zr0    O20       1.15288      .   S
    Zr10   O20       1.15288      .   S
    Zr3    O21       1.15432      .   S
    Zr7    O21       1.15432      .   S
    Zr11   O22       1.15435      .   S
    Zr1    O22       1.15435      .   S
    Zr6    O23       1.15287      .   S
    Zr2    O23       1.15287      .   S
    Zr2    O24       1.34560      .   S
    Zr13   O24       1.34560      .   S
    Zr2    O25       1.15273      .   S
    Zr8    O25       1.15273      .   S
    Zr1    O26       1.34393      .   S
    Zr14   O26       1.34393      .   S
    Zr1    O27       1.15467      .   S
    Zr5    O27       1.15467      .   S
    N28    O29       1.69729      .   S
    Zr10   O29       2.37533      .   S
    N28    O30       1.68579      .   S
    Zr6    O30       2.35570  1_565   S
    N31    O32       1.68697      .   S
    Zr5    O32       2.35786      .   S
    N31    O33       1.69761  1_556   S
    Zr9    O33       2.37592  1_655   S
    N34    O35       1.69729  1_556   S
    Zr4    O35       2.37525      .   S
    N34    O36       1.68597      .   S
    Zr8    O36       2.35600  1_565   S
    N37    O38       1.69798  1_554   S
    Zr5    O38       2.37624  1_455   S
    N37    O39       1.68694      .   S
    Zr9    O39       2.35767      .   S
    N40    O41       1.68599      .   S
    Zr10   O41       2.35611  1_545   S
    N40    O42       1.69719      .   S
    Zr6    O42       2.37513      .   S
    N43    O44       1.68615      .   S
    Zr4    O44       2.35634  1_545   S
    N43    O45       1.69719  1_554   S
    Zr8    O45       2.37511      .   S
    N46    O47       1.68671      .   S
    Zr11   O47       2.35747      .   S
    N46    O48       1.69783      .   S
    Zr7    O48       2.37639  1_655   S
    N49    O50       1.69780      .   S
    Zr11   O50       2.37632  1_455   S
    N49    O51       1.68673      .   S
    Zr7    O51       2.35760      .   S
