# CIF file generated by openbabel 2.4.90, see http://openbabel.sf.net
data_I
_chemical_name_common ''
_cell_length_a 14.01
_cell_length_b 16.787
_cell_length_c 16.818
_cell_angle_alpha 103.804
_cell_angle_beta 109.775
_cell_angle_gamma 109.721
_space_group_name_H-M_alt 'P 1'
_space_group_name_Hall 'P 1'
loop_
    _symmetry_equiv_pos_as_xyz
    x,y,z
loop_
    _atom_site_label
    _atom_site_type_symbol
    _atom_site_fract_x
    _atom_site_fract_y
    _atom_site_fract_z
    _atom_site_occupancy
    Zn0     Zn   0.54021   0.36062   0.27519   1.000
    Zn1     Zn   0.21235   0.79713   0.66157   1.000
    Zn2     Zn   0.96004   0.72506   0.64010   1.000
    Zn3     Zn   0.71215   0.66106   0.79704   1.000
    Zn4     Zn   0.45985   0.63941   0.72483   1.000
    Zn5     Zn   0.78772   0.20291   0.33845   1.000
    Zn6     Zn   0.04002   0.27499   0.35992   1.000
    Zn7     Zn   0.28791   0.33897   0.20298   1.000
