# CIF file generated by openbabel 2.4.90, see http://openbabel.sf.net
data_I
_chemical_name_common ''
_cell_length_a 14.01
_cell_length_b 16.787
_cell_length_c 16.818
_cell_angle_alpha 103.804
_cell_angle_beta 109.775
_cell_angle_gamma 109.721
_space_group_name_H-M_alt 'P 1'
_space_group_name_Hall 'P 1'
loop_
    _symmetry_equiv_pos_as_xyz
    x,y,z
loop_
    _atom_site_label
    _atom_site_type_symbol
    _atom_site_fract_x
    _atom_site_fract_y
    _atom_site_fract_z
    _atom_site_occupancy
    C0      C    0.45920   0.42287   0.12875   1.000
    C1      C    0.34838   0.18208   0.14572   1.000
    C2      C    0.26034   0.38072   0.37646   1.000
    C3      C    0.04107   0.87132   0.57742   1.000
    C4      C    0.15190   0.85478   0.81827   1.000
    C5      C    0.23974   0.62329   0.61935   1.000
    C6      C    0.54084   0.57710   0.87123   1.000
    C7      C    0.65168   0.81797   0.85428   1.000
    C8      C    0.73972   0.61933   0.62356   1.000
    C9      C    0.95901   0.12872   0.42260   1.000
    C10     C    0.84815   0.14527   0.18174   1.000
    C11     C    0.76032   0.37674   0.38070   1.000
    O12     O    0.36144   0.40101   0.12931   1.000
    O13     O    0.53943   0.41157   0.18026   1.000
    O14     O    0.28111   0.21153   0.15960   1.000
    O15     O    0.45866   0.22576   0.19415   1.000
    O16     O    0.21564   0.34726   0.28867   1.000
    O17     O    0.19884   0.36400   0.41814   1.000
    O18     O    0.13878   0.87063   0.59919   1.000
    O19     O    0.96109   0.82007   0.58906   1.000
    O20     O    0.21915   0.84094   0.78878   1.000
    O21     O    0.04162   0.80625   0.77470   1.000
    O22     O    0.28458   0.71123   0.65308   1.000
    O23     O    0.30116   0.58136   0.63562   1.000
    O24     O    0.63864   0.59903   0.87072   1.000
    O25     O    0.46066   0.58848   0.81978   1.000
    O26     O    0.71895   0.78849   0.84037   1.000
    O27     O    0.54139   0.77426   0.80589   1.000
    O28     O    0.78442   0.65278   0.71135   1.000
    O29     O    0.80122   0.63605   0.58188   1.000
    O30     O    0.86129   0.12939   0.40080   1.000
    O31     O    0.03899   0.17997   0.41096   1.000
    O32     O    0.78091   0.15910   0.21124   1.000
    O33     O    0.95843   0.19377   0.22530   1.000
    O34     O    0.71548   0.28880   0.34693   1.000
    O35     O    0.69890   0.41867   0.36440   1.000
loop_
    _geom_bond_atom_site_label_1
    _geom_bond_atom_site_label_2
    _geom_bond_distance
    _geom_bond_site_symmetry_2
    _ccdc_geom_bond_type
    C0     O12       1.29681      .   S
    C0     O13       1.27011      .   S
    C1     O14       1.26310      .   S
    C1     O15       1.29885      .   S
    C10    O32       1.26344      .   S
    C10    O33       1.29895      .   S
    O16    C2        1.27624      .   S
    O34    C11       1.27631      .   S
    O35    C11       1.28535      .   S
    C2     O17       1.28531      .   S
    O30    C9        1.29684      .   S
    O31    C9        1.26972  1_455   S
    C3     O19       1.26976  1_455   S
    C3     O18       1.29684      .   S
    O29    C8        1.28531      .   S
    C5     O23       1.28534      .   S
    C5     O22       1.27632      .   S
    C8     O28       1.27624      .   S
    O21    C4        1.29897      .   S
    O20    C4        1.26346      .   S
    O27    C7        1.29887      .   S
    O25    C6        1.27016      .   S
    O26    C7        1.26353      .   S
    O24    C6        1.29685      .   S
