# CIF file generated by openbabel 2.4.90, see http://openbabel.sf.net
data_I
_chemical_name_common ''
_cell_length_a 14.01
_cell_length_b 16.787
_cell_length_c 16.818
_cell_angle_alpha 103.804
_cell_angle_beta 109.775
_cell_angle_gamma 109.721
_space_group_name_H-M_alt 'P 1'
_space_group_name_Hall 'P 1'
loop_
    _symmetry_equiv_pos_as_xyz
    x,y,z
loop_
    _atom_site_label
    _atom_site_type_symbol
    _atom_site_fract_x
    _atom_site_fract_y
    _atom_site_fract_z
    _atom_site_occupancy
    Zr0     Zr   0.28791   0.33897   0.20298   1.000
    Zr1     Zr   0.54021   0.36062   0.27519   1.000
    Zr2     Zr   0.21235   0.79713   0.66157   1.000
    Zr3     Zr   0.96004   0.72506   0.64010   1.000
    Zr4     Zr   0.71215   0.66106   0.79704   1.000
    Zr5     Zr   0.45985   0.63941   0.72483   1.000
    Zr6     Zr   0.78772   0.20291   0.33845   1.000
    Zr7     Zr   0.04002   0.27499   0.35992   1.000
    N8      N    0.24992   0.89218   0.10748   1.000
    O9      O    0.02176   0.78928   0.98069   1.000
    O10     O    0.47810   0.01907   0.21032   1.000
    N11     N    0.74990   0.98824   0.01142   1.000
    N12     N    0.25016   0.01179   0.98861   1.000
    N13     N    0.50003   0.50002   0.50001   1.000
    O14     O    0.49541   0.43960   0.39850   1.000
    O15     O    0.43233   0.43419   0.38045   1.000
    O16     O    0.50465   0.56044   0.60151   1.000
    O17     O    0.56773   0.56585   0.61957   1.000
    N18     N    0.75015   0.10785   0.89253   1.000
    O19     O    0.97831   0.21075   0.01933   1.000
    O20     O    0.52197   0.98097   0.78969   1.000
    N21     N    0.00004   0.99996   0.50000   1.000
    N22     N    0.50003   0.50001   0.99995   1.000
    N23     N    0.00003   0.50002   0.50000   1.000
    O24     O    0.99527   0.39849   0.43905   1.000
    O25     O    0.93219   0.38047   0.43368   1.000
    O26     O    0.00479   0.60155   0.56097   1.000
    O27     O    0.06787   0.61957   0.56633   1.000
    C28     C    0.86250   0.16605   0.20609   1.000
    O29     O    0.82470   0.10667   0.14017   1.000
    O30     O    0.82341   0.17353   0.24047   1.000
    O31     O    0.93086   0.20021   0.24935   1.000
    C32     C    0.95310   0.14603   0.41145   1.000
    O33     O    0.96875   0.09689   0.44138   1.000
    O34     O    0.88880   0.15609   0.39054   1.000
    O35     O    0.99630   0.18675   0.39845   1.000
    C36     C    0.45335   0.41182   0.14611   1.000
    O37     O    0.38901   0.39090   0.15613   1.000
    O38     O    0.49659   0.39896   0.18692   1.000
    O39     O    0.46891   0.44162   0.09694   1.000
    C40     C    0.22494   0.36399   0.36109   1.000
    O41     O    0.17218   0.34174   0.37506   1.000
    O42     O    0.23836   0.35355   0.30346   1.000
    O43     O    0.31803   0.40978   0.40723   1.000
    C44     C    0.72490   0.36141   0.36401   1.000
    O45     O    0.67223   0.37553   0.34190   1.000
    O46     O    0.73825   0.30363   0.35335   1.000
    O47     O    0.81801   0.40745   0.40979   1.000
    C48     C    0.36271   0.20646   0.16649   1.000
    O49     O    0.43107   0.24983   0.20058   1.000
    O50     O    0.32361   0.24086   0.17389   1.000
    O51     O    0.32494   0.14053   0.10709   1.000
    C52     C    0.13756   0.83399   0.79392   1.000
    O53     O    0.06920   0.79982   0.75066   1.000
    O54     O    0.17536   0.89337   0.85985   1.000
    O55     O    0.17665   0.82651   0.75955   1.000
    C56     C    0.27516   0.63863   0.63602   1.000
    O57     O    0.18205   0.59259   0.59024   1.000
    O58     O    0.26181   0.69640   0.64667   1.000
    O59     O    0.32783   0.62451   0.65812   1.000
    C60     C    0.54671   0.58820   0.85391   1.000
    O61     O    0.53115   0.55839   0.90305   1.000
    O62     O    0.61105   0.60913   0.84389   1.000
    O63     O    0.50348   0.60107   0.81311   1.000
    C64     C    0.63734   0.79357   0.83351   1.000
    O65     O    0.67512   0.85951   0.89293   1.000
    O66     O    0.56898   0.75020   0.79944   1.000
    O67     O    0.67644   0.75918   0.82611   1.000
    C68     C    0.04698   0.85401   0.58856   1.000
    O69     O    0.03133   0.90312   0.55863   1.000
    O70     O    0.11127   0.84395   0.60947   1.000
    O71     O    0.00377   0.81329   0.60157   1.000
    C72     C    0.77512   0.63605   0.63893   1.000
    O73     O    0.68203   0.59026   0.59279   1.000
    O74     O    0.76170   0.64649   0.69656   1.000
    O75     O    0.82788   0.65830   0.62496   1.000
loop_
    _geom_bond_atom_site_label_1
    _geom_bond_atom_site_label_2
    _geom_bond_distance
    _geom_bond_site_symmetry_2
    _ccdc_geom_bond_type
    N8     O9        2.76631  1_554   S
    Zr4    O9        3.80114  1_655   S
    N8     O10       2.76643  1_565   S
    Zr6    O10       3.80145      .   S
    N13    O14       1.73256      .   S
    Zr1    O14       2.56575      .   S
    N13    O15       1.76229      .   S
    Zr0    O15       2.64797      .   S
    N13    O16       1.73255      .   S
    Zr5    O16       2.56572      .   S
    N13    O17       1.76228      .   S
    Zr4    O17       2.64796      .   S
    N18    O19       2.76630  1_556   S
    Zr0    O19       3.80107  1_455   S
    N18    O20       2.76642  1_545   S
    Zr2    O20       3.80142      .   S
    N23    O24       1.73308  1_455   S
    Zr7    O24       2.56663  1_455   S
    N23    O25       1.76134  1_455   S
    Zr6    O25       2.64633      .   S
    N23    O26       1.73315      .   S
    Zr3    O26       2.56670  1_655   S
    N23    O27       1.76138      .   S
    Zr2    O27       2.64637      .   S
    C28    O29       1.10567      .   S
    N11    O29       2.17786  1_565   S
    C28    O30       0.93593      .   S
    Zr6    O30       1.88276      .   S
    C28    O31       0.85687      .   S
    Zr7    O31       1.74315  1_455   S
    C32    O33       1.10787      .   S
    N21    O33       2.18322  1_465   S
    C32    O34       0.93825      .   S
    Zr6    O34       1.90549      .   S
    C32    O35       0.87367      .   S
    Zr7    O35       1.76157  1_455   S
    C36    O37       0.93893      .   S
    Zr0    O37       1.90709      .   S
    C36    O38       0.87300      .   S
    Zr1    O38       1.76039      .   S
    C36    O39       1.10791      .   S
    N22    O39       2.18339  1_556   S
    C40    O41       0.84501      .   S
    Zr7    O41       1.70102      .   S
    C40    O42       1.03440      .   S
    Zr0    O42       2.02695      .   S
    C40    O43       1.11715      .   S
    N13    O43       2.19179      .   S
    C44    O45       0.84466      .   S
    Zr1    O45       1.70058      .   S
    C44    O46       1.03435      .   S
    Zr6    O46       2.02686      .   S
    C44    O47       1.11703      .   S
    N23    O47       2.19143  1_455   S
    C48    O49       0.85711      .   S
    Zr1    O49       1.74372      .   S
    C48    O50       0.93506      .   S
    Zr0    O50       1.88131      .   S
    C48    O51       1.10565      .   S
    N12    O51       2.17783  1_556   S
    C52    O53       0.85687      .   S
    Zr3    O53       1.74303  1_655   S
    C52    O54       1.10572      .   S
    N12    O54       2.17792  1_545   S
    C52    O55       0.93590      .   S
    Zr2    O55       1.88275      .   S
    C56    O57       1.11703      .   S
    N23    O57       2.19145      .   S
    C56    O58       1.03435      .   S
    Zr2    O58       2.02684      .   S
    C56    O59       0.84465      .   S
    Zr5    O59       1.70056      .   S
    C60    O61       1.10748      .   S
    N22    O61       2.18202      .   S
    C60    O62       0.93891      .   S
    Zr4    O62       1.90703      .   S
    C60    O63       0.87305      .   S
    Zr5    O63       1.76048      .   S
    C64    O65       1.10574      .   S
    N11    O65       2.17791  1_554   S
    C64    O66       0.85711      .   S
    Zr5    O66       1.74369      .   S
    C64    O67       0.93512      .   S
    Zr4    O67       1.88128      .   S
    C68    O69       1.10740      .   S
    N21    O69       2.18186      .   S
    C68    O70       0.93823      .   S
    Zr2    O70       1.90548      .   S
    C68    O71       0.87373      .   S
    Zr3    O71       1.76163  1_655   S
    C72    O73       1.11716      .   S
    N13    O73       2.19180      .   S
    C72    O74       1.03440      .   S
    Zr4    O74       2.02697      .   S
    C72    O75       0.84502      .   S
    Zr3    O75       1.70104      .   S
