# CIF file generated by openbabel 2.4.90, see http://openbabel.sf.net
data_I
_chemical_name_common ''
_cell_length_a 14.01
_cell_length_b 16.787
_cell_length_c 16.818
_cell_angle_alpha 103.804
_cell_angle_beta 109.775
_cell_angle_gamma 109.721
_space_group_name_H-M_alt 'P 1'
_space_group_name_Hall 'P 1'
loop_
    _symmetry_equiv_pos_as_xyz
    x,y,z
loop_
    _atom_site_label
    _atom_site_type_symbol
    _atom_site_fract_x
    _atom_site_fract_y
    _atom_site_fract_z
    _atom_site_occupancy
    Zr0     Zr   0.28791   0.33897   0.20298   1.000
    Zr1     Zr   0.54021   0.36062   0.27519   1.000
    Zr2     Zr   0.21235   0.79713   0.66157   1.000
    Zr3     Zr   0.96004   0.72506   0.64010   1.000
    Zr4     Zr   0.71215   0.66106   0.79704   1.000
    Zr5     Zr   0.45985   0.63941   0.72483   1.000
    Zr6     Zr   0.78772   0.20291   0.33845   1.000
    Zr7     Zr   0.04002   0.27499   0.35992   1.000
    Zr8     Zr   0.45920   0.42287   0.12875   1.000
    Zr9     Zr   0.34838   0.18208   0.14572   1.000
    Zr10    Zr   0.26034   0.38072   0.37646   1.000
    Zr11    Zr   0.04107   0.87132   0.57742   1.000
    Zr12    Zr   0.15190   0.85478   0.81827   1.000
    Zr13    Zr   0.23974   0.62329   0.61935   1.000
    Zr14    Zr   0.54084   0.57710   0.87123   1.000
    Zr15    Zr   0.65168   0.81797   0.85428   1.000
    Zr16    Zr   0.73972   0.61933   0.62356   1.000
    Zr17    Zr   0.95901   0.12872   0.42260   1.000
    Zr18    Zr   0.84815   0.14527   0.18174   1.000
    Zr19    Zr   0.76032   0.37674   0.38070   1.000
    Zr20    Zr   0.36144   0.40101   0.12931   1.000
    Zr21    Zr   0.53943   0.41157   0.18026   1.000
    Zr22    Zr   0.28111   0.21153   0.15960   1.000
    Zr23    Zr   0.45866   0.22576   0.19415   1.000
    Zr24    Zr   0.21564   0.34726   0.28867   1.000
    Zr25    Zr   0.19884   0.36400   0.41814   1.000
    Zr26    Zr   0.13878   0.87063   0.59919   1.000
    Zr27    Zr   0.96109   0.82007   0.58906   1.000
    Zr28    Zr   0.21915   0.84094   0.78878   1.000
    Zr29    Zr   0.04162   0.80625   0.77470   1.000
    Zr30    Zr   0.28458   0.71123   0.65308   1.000
    Zr31    Zr   0.30116   0.58136   0.63562   1.000
    Zr32    Zr   0.63864   0.59903   0.87072   1.000
    Zr33    Zr   0.46066   0.58848   0.81978   1.000
    Zr34    Zr   0.71895   0.78849   0.84037   1.000
    Zr35    Zr   0.54139   0.77426   0.80589   1.000
    Zr36    Zr   0.78442   0.65278   0.71135   1.000
    Zr37    Zr   0.80122   0.63605   0.58188   1.000
    Zr38    Zr   0.86129   0.12939   0.40080   1.000
    Zr39    Zr   0.03899   0.17997   0.41096   1.000
    Zr40    Zr   0.78091   0.15910   0.21124   1.000
    Zr41    Zr   0.95843   0.19377   0.22530   1.000
    Zr42    Zr   0.71548   0.28880   0.34693   1.000
    Zr43    Zr   0.69890   0.41867   0.36440   1.000
    O44     O    0.41032   0.41194   0.12903   1.000
    O45     O    0.49931   0.41722   0.15451   1.000
    O46     O    0.32467   0.36999   0.16614   1.000
    O47     O    0.31474   0.19681   0.15266   1.000
    O48     O    0.40352   0.20392   0.16994   1.000
    O49     O    0.28451   0.27525   0.18129   1.000
    O50     O    0.53982   0.38610   0.22772   1.000
    O51     O    0.81453   0.15219   0.19649   1.000
    O52     O    0.90329   0.16952   0.20352   1.000
    O53     O    0.49943   0.29319   0.23467   1.000
    O54     O    0.25178   0.34311   0.24582   1.000
    O55     O    0.78432   0.18100   0.27485   1.000
    O56     O    0.99923   0.23438   0.29261   1.000
    O57     O    0.61955   0.38965   0.31979   1.000
    O58     O    0.23799   0.36399   0.33256   1.000
    O59     O    0.75160   0.24586   0.34269   1.000
    O60     O    0.82450   0.16615   0.36963   1.000
    O61     O    0.73790   0.33277   0.36381   1.000
    O62     O    0.03951   0.22748   0.38544   1.000
    O63     O    0.11943   0.31949   0.38903   1.000
    O64     O    0.72961   0.39771   0.37255   1.000
    O65     O    0.22959   0.37236   0.39730   1.000
    O66     O    0.91015   0.12906   0.41170   1.000
    O67     O    0.99900   0.15435   0.41678   1.000
    O68     O    0.00108   0.84570   0.58324   1.000
    O69     O    0.08993   0.87098   0.58830   1.000
    O70     O    0.77047   0.62769   0.60272   1.000
    O71     O    0.88063   0.68055   0.61099   1.000
    O72     O    0.96056   0.77256   0.61458   1.000
    O73     O    0.17557   0.83388   0.63038   1.000
    O74     O    0.27045   0.60233   0.62748   1.000
    O75     O    0.26216   0.66726   0.63621   1.000
    O76     O    0.76207   0.63605   0.66746   1.000
    O77     O    0.38050   0.61039   0.68022   1.000
    O78     O    0.00083   0.76565   0.70740   1.000
    O79     O    0.24846   0.75418   0.65733   1.000
    O80     O    0.21575   0.81903   0.72518   1.000
    O81     O    0.74828   0.65692   0.75419   1.000
    O82     O    0.50062   0.70683   0.76536   1.000
    O83     O    0.46025   0.61394   0.77230   1.000
    O84     O    0.09677   0.83052   0.79648   1.000
    O85     O    0.18553   0.84786   0.80353   1.000
    O86     O    0.71555   0.72478   0.81870   1.000
    O87     O    0.67539   0.63005   0.83388   1.000
    O88     O    0.59654   0.79612   0.83009   1.000
    O89     O    0.50075   0.58279   0.84550   1.000
    O90     O    0.68531   0.80323   0.84732   1.000
    O91     O    0.58974   0.58807   0.87097   1.000
    N92     N    0.24992   0.89218   0.10748   1.000
    O93     O    0.02176   0.78928   0.98069   1.000
    O94     O    0.47810   0.01907   0.21032   1.000
    N95     N    0.74990   0.98824   0.01142   1.000
    O96     O    0.78690   0.04728   0.07424   1.000
    O97     O    0.71290   0.92544   0.95234   1.000
    N98     N    0.25016   0.01179   0.98861   1.000
    O99     O    0.28716   0.07459   0.04768   1.000
    O100    O    0.21315   0.95275   0.92578   1.000
    N101    N    0.50003   0.50002   0.50001   1.000
    O102    O    0.49541   0.43960   0.39850   1.000
    O103    O    0.43233   0.43419   0.38045   1.000
    O104    O    0.50465   0.56044   0.60151   1.000
    O105    O    0.56773   0.56585   0.61957   1.000
    O106    O    0.41113   0.45558   0.45338   1.000
    O107    O    0.58893   0.54447   0.54664   1.000
    N108    N    0.75015   0.10785   0.89253   1.000
    O109    O    0.97831   0.21075   0.01933   1.000
    O110    O    0.52197   0.98097   0.78969   1.000
    N111    N    0.00004   0.99996   0.50000   1.000
    O112    O    0.98440   0.04776   0.47131   1.000
    O113    O    0.01568   0.95222   0.52870   1.000
    N114    N    0.50003   0.50001   0.99995   1.000
    O115    O    0.51559   0.52858   0.95218   1.000
    O116    O    0.48447   0.47143   0.04777   1.000
    N117    N    0.00003   0.50002   0.50000   1.000
    O118    O    0.99527   0.39849   0.43905   1.000
    O119    O    0.93219   0.38047   0.43368   1.000
    O120    O    0.00479   0.60155   0.56097   1.000
    O121    O    0.06787   0.61957   0.56633   1.000
    O122    O    0.91112   0.45349   0.45556   1.000
    O123    O    0.08894   0.54655   0.54446   1.000
loop_
    _geom_bond_atom_site_label_1
    _geom_bond_atom_site_label_2
    _geom_bond_distance
    _geom_bond_site_symmetry_2
    _ccdc_geom_bond_type
    Zr8    O44       0.64840      .   S
    Zr20   O44       0.64840      .   S
    Zr8    O45       0.63506      .   S
    Zr21   O45       0.63506      .   S
    Zr20   O46       1.05310      .   S
    Zr0    O46       1.05310      .   S
    Zr9    O47       0.63155      .   S
    Zr22   O47       0.63155      .   S
    Zr9    O48       0.64943      .   S
    Zr23   O48       0.64943      .   S
    Zr22   O49       1.02328      .   S
    Zr0    O49       1.02328      .   S
    Zr21   O50       0.99078      .   S
    Zr1    O50       0.99078      .   S
    Zr18   O51       0.63172      .   S
    Zr40   O51       0.63172      .   S
    Zr18   O52       0.64948      .   S
    Zr41   O52       0.64948      .   S
    Zr23   O53       1.00207      .   S
    Zr1    O53       1.00207      .   S
    Zr0    O54       1.01342      .   S
    Zr24   O54       1.01342      .   S
    Zr40   O55       1.02359      .   S
    Zr6    O55       1.02359      .   S
    Zr41   O56       1.00191      .   S
    Zr7    O56       1.00191  1_455   S
    Zr1    O57       0.96523      .   S
    Zr43   O57       0.96523      .   S
    Zr24   O58       0.63812      .   S
    Zr10   O58       0.63812      .   S
    Zr6    O59       1.01342      .   S
    Zr42   O59       1.01342      .   S
    Zr6    O60       1.05233      .   S
    Zr38   O60       1.05233      .   S
    Zr42   O61       0.63816      .   S
    Zr19   O61       0.63816      .   S
    Zr7    O62       0.99088      .   S
    Zr39   O62       0.99088      .   S
    Zr7    O63       0.96513      .   S
    Zr25   O63       0.96513      .   S
    Zr43   O64       0.64267      .   S
    Zr19   O64       0.64267      .   S
    Zr10   O65       0.64266      .   S
    Zr25   O65       0.64266      .   S
    Zr38   O66       0.64842      .   S
    Zr17   O66       0.64842      .   S
    Zr39   O67       0.63486  1_455   S
    Zr17   O67       0.63486      .   S
    Zr11   O68       0.63488      .   S
    Zr27   O68       0.63488  1_655   S
    Zr11   O69       0.64842      .   S
    Zr26   O69       0.64842      .   S
    Zr37   O70       0.64265      .   S
    Zr16   O70       0.64265      .   S
    Zr37   O71       0.96513      .   S
    Zr3    O71       0.96513      .   S
    Zr27   O72       0.99087      .   S
    Zr3    O72       0.99087      .   S
    Zr26   O73       1.05236      .   S
    Zr2    O73       1.05236      .   S
    Zr13   O74       0.64267      .   S
    Zr31   O74       0.64267      .   S
    Zr13   O75       0.63816      .   S
    Zr30   O75       0.63816      .   S
    Zr16   O76       0.63812      .   S
    Zr36   O76       0.63812      .   S
    Zr31   O77       0.96522      .   S
    Zr5    O77       0.96522      .   S
    Zr3    O78       1.00176  1_655   S
    Zr29   O78       1.00176      .   S
    Zr30   O79       1.01341      .   S
    Zr2    O79       1.01341      .   S
    Zr2    O80       1.02361      .   S
    Zr28   O80       1.02361      .   S
    Zr36   O81       1.01346      .   S
    Zr4    O81       1.01346      .   S
    Zr5    O82       1.00205      .   S
    Zr35   O82       1.00205      .   S
    Zr5    O83       0.99081      .   S
    Zr33   O83       0.99081      .   S
    Zr29   O84       0.64948      .   S
    Zr12   O84       0.64948      .   S
    Zr28   O85       0.63173      .   S
    Zr12   O85       0.63173      .   S
    Zr4    O86       1.02320      .   S
    Zr34   O86       1.02320      .   S
    Zr4    O87       1.05307      .   S
    Zr32   O87       1.05307      .   S
    Zr35   O88       0.64943      .   S
    Zr15   O88       0.64943      .   S
    Zr33   O89       0.63508      .   S
    Zr14   O89       0.63508      .   S
    Zr34   O90       0.63176      .   S
    Zr15   O90       0.63176      .   S
    Zr32   O91       0.64843      .   S
    Zr14   O91       0.64843      .   S
    N92    O93       2.76631  1_554   S
    Zr4    O93       3.80114  1_655   S
    N92    O94       2.76643  1_565   S
    Zr6    O94       3.80145      .   S
    N95    O96       1.07247  1_565   S
    Zr18   O96       1.81363      .   S
    N95    O97       1.07246  1_554   S
    Zr15   O97       1.81358      .   S
    N98    O99       1.07247  1_556   S
    Zr9    O99       1.81356      .   S
    N98    O100      1.07247  1_545   S
    Zr12   O100      1.81363      .   S
    N101   O102      1.73256      .   S
    Zr1    O102      2.56575      .   S
    N101   O103      1.76229      .   S
    Zr0    O103      2.64797      .   S
    N101   O104      1.73255      .   S
    Zr5    O104      2.56572      .   S
    N101   O105      1.76228      .   S
    Zr4    O105      2.64796      .   S
    N101   O106      1.07504      .   S
    Zr10   O106      1.81626      .   S
    N101   O107      1.07504      .   S
    Zr16   O107      1.81626      .   S
    N108   O109      2.76630  1_556   S
    Zr0    O109      3.80107  1_455   S
    N108   O110      2.76642  1_545   S
    Zr2    O110      3.80142      .   S
    N111   O112      1.07537  1_465   S
    Zr17   O112      1.81811      .   S
    N111   O113      1.07448      .   S
    Zr11   O113      1.81720      .   S
    N114   O115      1.07456      .   S
    Zr14   O115      1.81734      .   S
    N114   O116      1.07550  1_556   S
    Zr8    O116      1.81825      .   S
    N117   O118      1.73308  1_455   S
    Zr7    O118      2.56663  1_455   S
    N117   O119      1.76134  1_455   S
    Zr6    O119      2.64633      .   S
    N117   O120      1.73315      .   S
    Zr3    O120      2.56670  1_655   S
    N117   O121      1.76138      .   S
    Zr2    O121      2.64637      .   S
    N117   O122      1.07480  1_455   S
    Zr19   O122      1.81595      .   S
    N117   O123      1.07482      .   S
    Zr13   O123      1.81598      .   S
