# CIF file generated by openbabel 2.4.90, see http://openbabel.sf.net
data_I
_chemical_name_common ''
_cell_length_a 18.42
_cell_length_b 18.43
_cell_length_c 18.426
_cell_angle_alpha 60.177
_cell_angle_beta 60.213
_cell_angle_gamma 60.202
_space_group_name_H-M_alt 'P 1'
_space_group_name_Hall 'P 1'
loop_
    _symmetry_equiv_pos_as_xyz
    x,y,z
loop_
    _atom_site_label
    _atom_site_type_symbol
    _atom_site_fract_x
    _atom_site_fract_y
    _atom_site_fract_z
    _atom_site_occupancy
    H0      H    0.54978   0.06813   0.33572   1.000
    H1      H    0.54681   0.83572   0.56816   1.000
    H2      H    0.54799   0.06753   0.04940   1.000
    H3      H    0.54813   0.83576   0.04680   1.000
    H4      H    0.06817   0.83573   0.04820   1.000
    H5      H    0.93188   0.45024   0.66420   1.000
    H6      H    0.16430   0.45299   0.43195   1.000
    H7      H    0.93218   0.45207   0.95072   1.000
    H8      H    0.16429   0.45184   0.95308   1.000
    H9      H    0.16431   0.93197   0.95160   1.000
    H10     H    0.45021   0.93186   0.66427   1.000
    H11     H    0.45318   0.16427   0.43183   1.000
    H12     H    0.45200   0.93246   0.95052   1.000
    H13     H    0.45186   0.16423   0.95319   1.000
    H14     H    0.93182   0.16426   0.95177   1.000
    H15     H    0.06810   0.54975   0.33573   1.000
    H16     H    0.83568   0.54700   0.56804   1.000
    H17     H    0.06781   0.54792   0.04927   1.000
    H18     H    0.83570   0.54815   0.04691   1.000
    H19     H    0.83568   0.06802   0.04839   1.000
    H20     H    0.54744   0.54745   0.33574   1.000
    H21     H    0.54865   0.54881   0.56754   1.000
    H22     H    0.45254   0.45254   0.66425   1.000
    H23     H    0.45133   0.45118   0.43245   1.000
    C24     C    0.61130   0.88907   0.38912   1.000
    C25     C    0.55386   0.94638   0.44640   1.000
    C26     C    0.52758   0.03904   0.40760   1.000
    C27     C    0.52590   0.90769   0.53906   1.000
    C28     C    0.61091   0.88858   0.11100   1.000
    C29     C    0.55360   0.94609   0.05367   1.000
    C30     C    0.52658   0.03872   0.02741   1.000
    C31     C    0.52666   0.90771   0.02591   1.000
    C32     C    0.03907   0.90769   0.02670   1.000
    C33     C    0.11096   0.38855   0.61090   1.000
    C34     C    0.05363   0.44609   0.55365   1.000
    C35     C    0.96095   0.47242   0.59230   1.000
    C36     C    0.09233   0.47396   0.46000   1.000
    C37     C    0.11121   0.38917   0.88904   1.000
    C38     C    0.05379   0.44642   0.94637   1.000
    C39     C    0.96112   0.47346   0.97268   1.000
    C40     C    0.09232   0.47333   0.97400   1.000
    C41     C    0.09233   0.96100   0.97300   1.000
    C42     C    0.38868   0.11092   0.61087   1.000
    C43     C    0.44613   0.05361   0.55359   1.000
    C44     C    0.47241   0.96095   0.59231   1.000
    C45     C    0.47408   0.09230   0.46093   1.000
    C46     C    0.38907   0.11142   0.88890   1.000
    C47     C    0.44640   0.05390   0.94631   1.000
    C48     C    0.47340   0.96127   0.97258   1.000
    C49     C    0.47332   0.09228   0.97408   1.000
    C50     C    0.96091   0.09230   0.97330   1.000
    C51     C    0.88903   0.61142   0.38901   1.000
    C52     C    0.94635   0.55392   0.44630   1.000
    C53     C    0.03904   0.52756   0.40769   1.000
    C54     C    0.90766   0.52603   0.53900   1.000
    C55     C    0.88878   0.61082   0.11095   1.000
    C56     C    0.94619   0.55358   0.05361   1.000
    C57     C    0.03887   0.52653   0.02732   1.000
    C58     C    0.90766   0.52665   0.02599   1.000
    C59     C    0.90766   0.03899   0.02680   1.000
    C60     C    0.61090   0.61099   0.38858   1.000
    C61     C    0.55359   0.55366   0.44608   1.000
    C62     C    0.52627   0.52628   0.40770   1.000
    C63     C    0.52694   0.52704   0.53872   1.000
    C64     C    0.88909   0.88899   0.11128   1.000
    C65     C    0.94639   0.94633   0.05384   1.000
    C66     C    0.38908   0.38900   0.61141   1.000
    C67     C    0.44640   0.44634   0.55391   1.000
    C68     C    0.47371   0.47371   0.59230   1.000
    C69     C    0.47304   0.47295   0.46127   1.000
    C70     C    0.11089   0.11100   0.88873   1.000
    C71     C    0.05360   0.05366   0.94614   1.000
    O72     O    0.63314   0.80530   0.42870   1.000
    O73     O    0.63380   0.92863   0.30535   1.000
    O74     O    0.63310   0.80484   0.13250   1.000
    O75     O    0.63291   0.92804   0.13371   1.000
    O76     O    0.92868   0.80524   0.13315   1.000
    O77     O    0.19473   0.36640   0.57144   1.000
    O78     O    0.07138   0.36642   0.69474   1.000
    O79     O    0.19498   0.36727   0.86717   1.000
    O80     O    0.07168   0.36689   0.86671   1.000
    O81     O    0.19466   0.07146   0.86635   1.000
    O82     O    0.36685   0.19469   0.57100   1.000
    O83     O    0.36619   0.07137   0.69464   1.000
    O84     O    0.36688   0.19516   0.86743   1.000
    O85     O    0.36708   0.07195   0.86629   1.000
    O86     O    0.07131   0.19475   0.86685   1.000
    O87     O    0.80526   0.63358   0.42855   1.000
    O88     O    0.92860   0.63357   0.30525   1.000
    O89     O    0.80500   0.63272   0.13282   1.000
    O90     O    0.92831   0.63309   0.13329   1.000
    O91     O    0.80532   0.92853   0.13365   1.000
    O92     O    0.63300   0.63353   0.42806   1.000
    O93     O    0.63298   0.63265   0.30482   1.000
    O94     O    0.36698   0.36645   0.57193   1.000
    O95     O    0.36701   0.36734   0.69517   1.000
loop_
    _geom_bond_atom_site_label_1
    _geom_bond_atom_site_label_2
    _geom_bond_distance
    _geom_bond_site_symmetry_2
    _ccdc_geom_bond_type
    C31    H3        1.08864      .   S
    C31    C29       1.40321      .   S
    C31    C48       1.39026  1_554   S
    C58    H18       1.08863      .   S
    C58    C56       1.40321      .   S
    C58    C39       1.39039  1_554   S
    C32    H4        1.08861      .   S
    C32    C65       1.40345  1_455   S
    C32    C41       1.39040  1_554   S
    C59    H19       1.08860      .   S
    C59    C65       1.40332  1_545   S
    C59    C50       1.39037  1_554   S
    C57    H17       1.08849      .   S
    C57    C56       1.40358  1_455   S
    C57    C40       1.39050  1_554   S
    C30    H2        1.08750      .   S
    C30    C29       1.40340  1_545   S
    C30    C49       1.39026  1_554   S
    C56    C55       1.49572      .   S
    C29    C28       1.49535      .   S
    C65    C64       1.49566      .   S
    C55    O89       1.27727      .   S
    C55    O90       1.27722      .   S
    C28    O74       1.27735      .   S
    C28    O75       1.27759      .   S
    C64    O76       1.27717      .   S
    C64    O91       1.27716      .   S
    O93    C60       1.27737      .   S
    O88    C51       1.27723      .   S
    O73    C24       1.27720      .   S
    H0     C26       1.08736      .   S
    H15    C53       1.08855      .   S
    H20    C62       1.08873      .   S
    C60    O92       1.27701      .   S
    C60    C61       1.49579      .   S
    C51    O87       1.27720      .   S
    C51    C52       1.49501      .   S
    C24    O72       1.27723      .   S
    C24    C25       1.49584      .   S
    C26    C25       1.40350  1_545   S
    C26    C45       1.39151      .   S
    C53    C52       1.40341  1_455   S
    C53    C36       1.37752      .   S
    C62    C61       1.40305      .   S
    C62    C69       1.39037      .   S
    H11    C45       1.08861      .   S
    H6     C36       1.08760      .   S
    H23    C69       1.08857      .   S
    C61    C63       1.40334      .   S
    C52    C54       1.40394      .   S
    C25    C27       1.40327      .   S
    C36    C34       1.41767      .   S
    C45    C43       1.40327      .   S
    C69    C67       1.40334      .   S
    C63    H21       1.08857      .   S
    C63    C68       1.39037      .   S
    C54    H16       1.08860      .   S
    C54    C35       1.39029      .   S
    C27    H1        1.08861      .   S
    C27    C44       1.39047      .   S
    C43    C44       1.40339  1_545   S
    C43    C42       1.49584      .   S
    C34    C35       1.40346  1_455   S
    C34    C33       1.49450      .   S
    C67    C68       1.40319      .   S
    C67    C66       1.49581      .   S
    O82    C42       1.27790      .   S
    O77    C33       1.27700      .   S
    O94    C66       1.27699      .   S
    C35    H5        1.08767      .   S
    C68    H22       1.08857      .   S
    C44    H10       1.08852      .   S
    C42    O83       1.27720      .   S
    C33    O78       1.27836      .   S
    C66    O95       1.27737      .   S
    O85    C46       1.27612      .   S
    O81    C70       1.27718      .   S
    O80    C37       1.27703      .   S
    O86    C70       1.27717      .   S
    O79    C37       1.27728      .   S
    O84    C46       1.27744      .   S
    C70    C71       1.49565      .   S
    C46    C47       1.49669      .   S
    C37    C38       1.49580      .   S
    C71    C41       1.40332  1_545   S
    C71    C50       1.40347  1_455   S
    C47    C48       1.40343  1_545   S
    C47    C49       1.40310      .   S
    C38    C39       1.40358  1_455   S
    C38    C40       1.40320      .   S
    H12    C48       1.08848      .   S
    H7     C39       1.08861      .   S
    H9     C41       1.08858      .   S
    H14    C50       1.08861      .   S
    H8     C40       1.08863      .   S
    H13    C49       1.08865      .   S
