# CIF file generated by openbabel 2.4.90, see http://openbabel.sf.net
data_I
_chemical_name_common ''
_cell_length_a 18.42
_cell_length_b 18.43
_cell_length_c 18.426
_cell_angle_alpha 60.177
_cell_angle_beta 60.213
_cell_angle_gamma 60.202
_space_group_name_H-M_alt 'P 1'
_space_group_name_Hall 'P 1'
loop_
    _symmetry_equiv_pos_as_xyz
    x,y,z
loop_
    _atom_site_label
    _atom_site_type_symbol
    _atom_site_fract_x
    _atom_site_fract_y
    _atom_site_fract_z
    _atom_site_occupancy
    N0      N    0.99999   0.49999   1.00000   1.000
    N1      N    0.49999   1.00000   0.49997   1.000
    N2      N    0.49999   0.99999   0.99998   1.000
    N3      N    0.99999   0.99999   0.99998   1.000
    N4      N    0.99999   0.49999   0.49992   1.000
    N5      N    0.49999   0.49999   0.50000   1.000
    Zr6     Zr   0.74998   0.74994   0.24994   1.000
    Zr7     Zr   0.25001   0.25005   0.75005   1.000
    O8      O    0.16750   0.33261   0.83259   1.000
    O9      O    0.83249   0.66738   0.16740   1.000
    O10     O    0.33248   0.16746   0.66742   1.000
    O11     O    0.16743   0.16748   0.83251   1.000
    O12     O    0.16745   0.33248   0.66746   1.000
    O13     O    0.33256   0.16757   0.83256   1.000
    O14     O    0.33257   0.33258   0.66756   1.000
    O15     O    0.66750   0.83253   0.33254   1.000
    O16     O    0.83255   0.83251   0.16748   1.000
    O17     O    0.83254   0.66751   0.33249   1.000
    O18     O    0.66743   0.83242   0.16742   1.000
    O19     O    0.66742   0.66741   0.33243   1.000
loop_
    _geom_bond_atom_site_label_1
    _geom_bond_atom_site_label_2
    _geom_bond_distance
    _geom_bond_site_symmetry_2
    _ccdc_geom_bond_type
    N0     O8        4.37029  1_655   S
    Zr7    O8        2.15531      .   S
    N0     O9        4.37031  1_556   S
    Zr6    O9        2.15531      .   S
    Zr7    O10       2.15673      .   S
    N1     O10       4.37196  1_565   S
    Zr7    O11       2.15465      .   S
    N3     O11       4.36971  1_665   S
    Zr7    O12       2.15407      .   S
    N4     O12       4.36944  1_655   S
    Zr7    O13       2.15304      .   S
    N2     O13       4.36760  1_565   S
    Zr7    O14       2.15389      .   S
    N5     O14       4.36870      .   S
    N1     O15       4.37174      .   S
    Zr6    O15       2.15634      .   S
    N3     O16       4.36972  1_556   S
    Zr6    O16       2.15466      .   S
    N4     O17       4.36801      .   S
    Zr6    O17       2.15359      .   S
    Zr6    O18       2.15318      .   S
    N2     O18       4.36784  1_556   S
    Zr6    O19       2.15389      .   S
    N5     O19       4.36870      .   S
