# CIF file generated by openbabel 2.4.90, see http://openbabel.sf.net
data_I
_chemical_name_common ''
_cell_length_a 14.53
_cell_length_b 15.861
_cell_length_c 16.411
_cell_angle_alpha 89.999
_cell_angle_beta 89.998
_cell_angle_gamma 89.999
_space_group_name_H-M_alt 'P 1'
_space_group_name_Hall 'P 1'
loop_
    _symmetry_equiv_pos_as_xyz
    x,y,z
loop_
    _atom_site_label
    _atom_site_type_symbol
    _atom_site_fract_x
    _atom_site_fract_y
    _atom_site_fract_z
    _atom_site_occupancy
    N0      N    0.24844   0.49142   0.51559   1.000
    N1      N    0.25156   0.99130   0.51558   1.000
    N2      N    0.75160   0.50857   0.48432   1.000
    N3      N    0.74848   0.00827   0.48439   1.000
    N4      N    0.99521   0.22540   0.77061   1.000
    N5      N    0.99519   0.27461   0.27062   1.000
    N6      N    0.00485   0.72540   0.72935   1.000
    N7      N    0.49509   0.22545   0.72929   1.000
    N8      N    0.25156   0.50872   0.01558   1.000
    N9      N    0.00484   0.77461   0.22937   1.000
    N10     N    0.75160   0.99142   0.98438   1.000
    N11     N    0.49509   0.27454   0.22929   1.000
    N12     N    0.50495   0.77454   0.27069   1.000
    N13     N    0.24845   0.00813   0.01559   1.000
    N14     N    0.50495   0.72545   0.77067   1.000
    N15     N    0.74848   0.49129   0.98435   1.000
    Zr16    Zr   0.37768   0.02362   0.81415   1.000
    O17     O    0.42090   0.93353   0.80481   1.000
    O18     O    0.33657   0.01122   0.72454   1.000
    Zr19    Zr   0.14229   0.93835   0.72198   1.000
    O20     O    0.09261   0.02381   0.73501   1.000
    O21     O    0.10335   0.86788   0.72666   1.000
    O22     O    0.17973   0.95834   0.80999   1.000
    Zr23    Zr   0.50002   0.00000   0.49990   1.000
    Zr24    Zr   0.87776   0.02359   0.68579   1.000
    O25     O    0.83664   0.01123   0.77541   1.000
    O26     O    0.92093   0.93348   0.69515   1.000
    Zr27    Zr   0.00001   0.50000   0.49999   1.000
    Zr28    Zr   0.35773   0.06152   0.22199   1.000
    O29     O    0.39663   0.13201   0.22663   1.000
    O30     O    0.40746   0.97609   0.23504   1.000
    O31     O    0.32028   0.04144   0.31000   1.000
    Zr32    Zr   0.50002   0.50000   0.00000   1.000
    Zr33    Zr   0.64231   0.56152   0.27799   1.000
    O34     O    0.59258   0.47608   0.26494   1.000
    O35     O    0.67975   0.54143   0.18996   1.000
    O36     O    0.60340   0.63201   0.27335   1.000
    Zr37    Zr   0.62236   0.52362   0.68581   1.000
    O38     O    0.57914   0.43352   0.69515   1.000
    O39     O    0.66347   0.51121   0.77541   1.000
    Zr40    Zr   0.14229   0.56165   0.22199   1.000
    O41     O    0.09260   0.47620   0.23502   1.000
    O42     O    0.10334   0.63212   0.22667   1.000
    O43     O    0.17972   0.54155   0.30999   1.000
    Zr44    Zr   0.35773   0.43847   0.72199   1.000
    O45     O    0.40746   0.52390   0.73504   1.000
    O46     O    0.32029   0.45857   0.81000   1.000
    O47     O    0.39664   0.36798   0.72663   1.000
    Zr48    Zr   0.62237   0.97637   0.18582   1.000
    O49     O    0.66347   0.98866   0.27543   1.000
    O50     O    0.57914   0.06646   0.19516   1.000
    Zr51    Zr   0.85775   0.06166   0.27799   1.000
    O52     O    0.90743   0.97620   0.26496   1.000
    O53     O    0.89669   0.13212   0.27331   1.000
    O54     O    0.82031   0.04155   0.18998   1.000
    Zr55    Zr   0.37767   0.47637   0.31417   1.000
    O56     O    0.42090   0.56646   0.30483   1.000
    O57     O    0.33657   0.48878   0.22455   1.000
    Zr58    Zr   0.12228   0.97642   0.31419   1.000
    O59     O    0.07911   0.06653   0.30482   1.000
    O60     O    0.16340   0.98866   0.22457   1.000
    Zr61    Zr   0.85776   0.43836   0.77798   1.000
    O62     O    0.89670   0.36789   0.77330   1.000
    O63     O    0.82032   0.45845   0.68995   1.000
    O64     O    0.90745   0.52381   0.76495   1.000
    Zr65    Zr   0.87777   0.47643   0.18579   1.000
    O66     O    0.83664   0.48878   0.27539   1.000
    O67     O    0.92092   0.56653   0.19516   1.000
    Zr68    Zr   0.64232   0.93846   0.77798   1.000
    O69     O    0.60341   0.86797   0.77333   1.000
    O70     O    0.67976   0.95845   0.68997   1.000
    O71     O    0.59259   0.02390   0.76493   1.000
    Zr72    Zr   0.00000   0.00000   0.00000   1.000
    Zr73    Zr   0.12228   0.52358   0.81418   1.000
    O74     O    0.07912   0.43348   0.80482   1.000
    O75     O    0.16340   0.51123   0.72456   1.000
    O76     O    0.31859   0.04416   0.16009   1.000
    O77     O    0.57450   0.50239   0.99474   1.000
    O78     O    0.42554   0.49761   0.00524   1.000
    O79     O    0.33363   0.01616   0.87453   1.000
    O80     O    0.07447   0.99746   0.00524   1.000
    O81     O    0.18143   0.95561   0.66008   1.000
    O82     O    0.81862   0.45561   0.83987   1.000
    O83     O    0.41838   0.08436   0.78811   1.000
    O84     O    0.18143   0.54440   0.16009   1.000
    O85     O    0.92555   0.49756   0.49473   1.000
    O86     O    0.07447   0.50243   0.50523   1.000
    O87     O    0.68146   0.95572   0.83988   1.000
    O88     O    0.58167   0.58436   0.71185   1.000
    O89     O    0.66642   0.51627   0.62542   1.000
    O90     O    0.68145   0.54426   0.33987   1.000
    O91     O    0.81861   0.04429   0.33989   1.000
    O92     O    0.83369   0.01619   0.62543   1.000
    O93     O    0.57450   0.99750   0.49469   1.000
    O94     O    0.83369   0.48371   0.12539   1.000
    O95     O    0.92555   0.00243   0.99475   1.000
    O96     O    0.66642   0.98371   0.12544   1.000
    O97     O    0.08157   0.91569   0.28816   1.000
    O98     O    0.31859   0.45573   0.66009   1.000
    O99     O    0.33362   0.48372   0.37453   1.000
    O100    O    0.41837   0.41563   0.28812   1.000
    O101    O    0.91847   0.41570   0.21182   1.000
    O102    O    0.08157   0.58431   0.78815   1.000
    O103    O    0.16635   0.51630   0.87454   1.000
    O104    O    0.58167   0.91563   0.21187   1.000
    O105    O    0.91847   0.08432   0.71182   1.000
    O106    O    0.42554   0.00240   0.50517   1.000
    O107    O    0.16635   0.98371   0.37455   1.000
loop_
    _geom_bond_atom_site_label_1
    _geom_bond_atom_site_label_2
    _geom_bond_distance
    _geom_bond_site_symmetry_2
    _ccdc_geom_bond_type
    Zr16   O17       1.56843  1_545   S
    N14    O17       3.56330      .   S
    Zr16   O18       1.59940      .   S
    N1     O18       3.65863  1_565   S
    Zr19   O20       1.55049  1_565   S
    N4     O20       3.54508  1_655   S
    Zr19   O21       1.25511      .   S
    N6     O21       2.67548      .   S
    Zr19   O22       1.57567      .   S
    N13    O22       3.60628  1_544   S
    Zr24   O25       1.59943      .   S
    N10    O25       3.65874  1_565   S
    Zr24   O26       1.56825  1_545   S
    N6     O26       3.56300  1_455   S
    Zr28   O29       1.25515      .   S
    N11    O29       2.67558      .   S
    Zr28   O30       1.55053  1_545   S
    N12    O30       3.54521      .   S
    Zr28   O31       1.57594      .   S
    N1     O31       3.60717  1_565   S
    Zr33   O34       1.55049      .   S
    N11    O34       3.54517      .   S
    Zr33   O35       1.57630      .   S
    N15    O35       3.60759  1_556   S
    Zr33   O36       1.25515      .   S
    N12    O36       2.67558      .   S
    Zr37   O38       1.56838      .   S
    N7     O38       3.56323      .   S
    Zr37   O39       1.59929      .   S
    N15    O39       3.65828      .   S
    Zr40   O41       1.55047      .   S
    N5     O41       3.54507  1_655   S
    Zr40   O42       1.25511      .   S
    N9     O42       2.67548      .   S
    Zr40   O43       1.57582      .   S
    N0     O43       3.60742      .   S
    Zr44   O45       1.55049      .   S
    N14    O45       3.54516      .   S
    Zr44   O46       1.57597      .   S
    N8     O46       3.60724  1_554   S
    Zr44   O47       1.25516      .   S
    N7     O47       2.67559      .   S
    Zr48   O49       1.59920      .   S
    N3     O49       3.65820  1_545   S
    Zr48   O50       1.56845  1_565   S
    N11    O50       3.56333      .   S
    Zr51   O52       1.55050  1_545   S
    N9     O52       3.54511  1_455   S
    Zr51   O53       1.25510      .   S
    N5     O53       2.67546      .   S
    Zr51   O54       1.57603      .   S
    N10    O54       3.60746  1_566   S
    Zr55   O56       1.56841      .   S
    N12    O56       3.56329      .   S
    Zr55   O57       1.59951      .   S
    N8     O57       3.65884      .   S
    Zr58   O59       1.56823  1_565   S
    N5     O59       3.56298  1_655   S
    Zr58   O60       1.59929      .   S
    N13    O60       3.65842  1_545   S
    Zr61   O62       1.25510      .   S
    N4     O62       2.67548      .   S
    Zr61   O63       1.57619      .   S
    N2     O63       3.60794      .   S
    Zr61   O64       1.55045      .   S
    N6     O64       3.54503  1_455   S
    Zr65   O66       1.59924      .   S
    N2     O66       3.65807      .   S
    Zr65   O67       1.56817      .   S
    N9     O67       3.56285  1_455   S
    Zr68   O69       1.25516      .   S
    N14    O69       2.67559      .   S
    Zr68   O70       1.57559      .   S
    N3     O70       3.60602  1_545   S
    Zr68   O71       1.55054  1_565   S
    N7     O71       3.54523      .   S
    Zr73   O74       1.56819      .   S
    N4     O74       3.56290  1_655   S
    Zr73   O75       1.59948      .   S
    N0     O75       3.65880      .   S
    Zr28   O76       1.19635      .   S
    N13    O76       2.64366      .   S
    Zr32   O77       1.08626  1_554   S
    N15    O77       2.53985      .   S
    Zr32   O78       1.08620      .   S
    N8     O78       2.53973      .   S
    N13    O79       2.62815  1_554   S
    Zr16   O79       1.18547      .   S
    N13    O80       2.53925  1_545   S
    Zr72   O80       1.08618  1_545   S
    Zr19   O81       1.19587      .   S
    N1     O81       2.64237      .   S
    Zr61   O82       1.19578      .   S
    N15    O82       2.64208      .   S
    Zr16   O83       1.20850      .   S
    N7     O83       2.68001      .   S
    Zr40   O84       1.19590      .   S
    N8     O84       2.64249      .   S
    Zr27   O85       1.08594  1_455   S
    N2     O85       2.53934      .   S
    Zr27   O86       1.08609      .   S
    N0     O86       2.53955      .   S
    Zr68   O87       1.19594      .   S
    N10    O87       2.64253      .   S
    N14    O88       2.68000      .   S
    Zr37   O88       1.20849      .   S
    N2     O89       2.62843      .   S
    Zr37   O89       1.18547      .   S
    N2     O90       2.64180      .   S
    Zr33   O90       1.19571      .   S
    N3     O91       2.64352      .   S
    Zr51   O91       1.19627      .   S
    N3     O92       2.62795      .   S
    Zr24   O92       1.18539      .   S
    N3     O93       2.53938  1_545   S
    Zr23   O93       1.08627  1_545   S
    N15    O94       2.62781  1_556   S
    Zr65   O94       1.18567      .   S
    N10    O95       2.53921  1_565   S
    Zr72   O95       1.08589  1_454   S
    N10    O96       2.62792  1_556   S
    Zr48   O96       1.18530      .   S
    N9     O97       2.67985      .   S
    Zr58   O97       1.20843      .   S
    Zr44   O98       1.19595      .   S
    N0     O98       2.64257      .   S
    Zr55   O99       1.18514      .   S
    N0     O99       2.62771      .   S
    Zr55   O100      1.20851      .   S
    N11    O100      2.68004      .   S
    N5     O101      2.67979      .   S
    Zr65   O101      1.20838      .   S
    N6     O102      2.67978      .   S
    Zr73   O102      1.20838      .   S
    Zr73   O103      1.18521      .   S
    N8     O103      2.62771  1_554   S
    N12    O104      2.68003      .   S
    Zr48   O104      1.20851      .   S
    N4     O105      2.67983      .   S
    Zr24   O105      1.20840      .   S
    N1     O106      2.53984  1_565   S
    Zr23   O106      1.08627      .   S
    N1     O107      2.62763      .   S
    Zr58   O107      1.18518      .   S
