# CIF file generated by openbabel 2.4.90, see http://openbabel.sf.net
data_I
_chemical_name_common ''
_cell_length_a 14.53
_cell_length_b 15.861
_cell_length_c 16.411
_cell_angle_alpha 89.999
_cell_angle_beta 89.998
_cell_angle_gamma 89.999
_space_group_name_H-M_alt 'P 1'
_space_group_name_Hall 'P 1'
loop_
    _symmetry_equiv_pos_as_xyz
    x,y,z
loop_
    _atom_site_label
    _atom_site_type_symbol
    _atom_site_fract_x
    _atom_site_fract_y
    _atom_site_fract_z
    _atom_site_occupancy
    N0      N    0.24844   0.49142   0.51559   1.000
    N1      N    0.25156   0.99130   0.51558   1.000
    N2      N    0.75160   0.50857   0.48432   1.000
    N3      N    0.74848   0.00827   0.48439   1.000
    N4      N    0.99521   0.22540   0.77061   1.000
    N5      N    0.99519   0.27461   0.27062   1.000
    N6      N    0.00485   0.72540   0.72935   1.000
    N7      N    0.49509   0.22545   0.72929   1.000
    N8      N    0.25156   0.50872   0.01558   1.000
    N9      N    0.00484   0.77461   0.22937   1.000
    N10     N    0.75160   0.99142   0.98438   1.000
    N11     N    0.49509   0.27454   0.22929   1.000
    N12     N    0.50495   0.77454   0.27069   1.000
    N13     N    0.24845   0.00813   0.01559   1.000
    N14     N    0.50495   0.72545   0.77067   1.000
    N15     N    0.74848   0.49129   0.98435   1.000
    Zr16    Zr   0.37768   0.02362   0.81415   1.000
    O17     O    0.42090   0.93353   0.80481   1.000
    O18     O    0.34041   0.02070   0.88145   1.000
    O19     O    0.33657   0.01122   0.72454   1.000
    O20     O    0.42719   0.07712   0.78754   1.000
    O21     O    0.40957   0.09160   0.78868   1.000
    O22     O    0.32684   0.01163   0.86760   1.000
    Zr23    Zr   0.14229   0.93835   0.72198   1.000
    O24     O    0.09261   0.02381   0.73501   1.000
    O25     O    0.10335   0.86788   0.72666   1.000
    O26     O    0.17973   0.95834   0.80999   1.000
    O27     O    0.18946   0.95793   0.66693   1.000
    O28     O    0.17340   0.95329   0.65323   1.000
    Zr29    Zr   0.50002   0.00000   0.49990   1.000
    O30     O    0.57362   0.99887   0.48302   1.000
    O31     O    0.57537   0.99613   0.50637   1.000
    O32     O    0.42642   0.00103   0.51685   1.000
    O33     O    0.42466   0.00376   0.49350   1.000
    Zr34    Zr   0.87776   0.02359   0.68579   1.000
    O35     O    0.92727   0.07708   0.71239   1.000
    O36     O    0.84047   0.02073   0.61850   1.000
    O37     O    0.82691   0.01165   0.63235   1.000
    O38     O    0.83664   0.01123   0.77541   1.000
    O39     O    0.92093   0.93348   0.69515   1.000
    O40     O    0.90967   0.09156   0.71124   1.000
    Zr41    Zr   0.00001   0.50000   0.49999   1.000
    O42     O    0.92643   0.49894   0.48305   1.000
    O43     O    0.92467   0.49619   0.50640   1.000
    O44     O    0.07359   0.50106   0.51691   1.000
    O45     O    0.07535   0.50380   0.49356   1.000
    Zr46    Zr   0.35773   0.06152   0.22199   1.000
    O47     O    0.32662   0.04647   0.15324   1.000
    O48     O    0.39663   0.13201   0.22663   1.000
    O49     O    0.40746   0.97609   0.23504   1.000
    O50     O    0.32028   0.04144   0.31000   1.000
    O51     O    0.31056   0.04185   0.16695   1.000
    Zr52    Zr   0.50002   0.50000   0.00000   1.000
    O53     O    0.42467   0.49624   0.99356   1.000
    O54     O    0.42642   0.49898   0.01691   1.000
    O55     O    0.57362   0.50102   0.98307   1.000
    O56     O    0.57537   0.50376   0.00641   1.000
    Zr57    Zr   0.64231   0.56152   0.27799   1.000
    O58     O    0.68948   0.54195   0.33302   1.000
    O59     O    0.67342   0.54657   0.34672   1.000
    O60     O    0.59258   0.47608   0.26494   1.000
    O61     O    0.67975   0.54143   0.18996   1.000
    O62     O    0.60340   0.63201   0.27335   1.000
    Zr63    Zr   0.62236   0.52362   0.68581   1.000
    O64     O    0.57285   0.57712   0.71242   1.000
    O65     O    0.65963   0.52080   0.61850   1.000
    O66     O    0.59048   0.59159   0.71128   1.000
    O67     O    0.67320   0.51174   0.63235   1.000
    O68     O    0.57914   0.43352   0.69515   1.000
    O69     O    0.66347   0.51121   0.77541   1.000
    Zr70    Zr   0.14229   0.56165   0.22199   1.000
    O71     O    0.17340   0.54673   0.15324   1.000
    O72     O    0.09260   0.47620   0.23502   1.000
    O73     O    0.10334   0.63212   0.22667   1.000
    O74     O    0.18945   0.54208   0.16694   1.000
    O75     O    0.17972   0.54155   0.30999   1.000
    Zr76    Zr   0.35773   0.43847   0.72199   1.000
    O77     O    0.40746   0.52390   0.73504   1.000
    O78     O    0.32029   0.45857   0.81000   1.000
    O79     O    0.32662   0.45342   0.65324   1.000
    O80     O    0.31056   0.45804   0.66694   1.000
    O81     O    0.39664   0.36798   0.72663   1.000
    Zr82    Zr   0.62237   0.97637   0.18582   1.000
    O83     O    0.66347   0.98866   0.27543   1.000
    O84     O    0.65964   0.97918   0.11852   1.000
    O85     O    0.57286   0.92287   0.21244   1.000
    O86     O    0.57914   0.06646   0.19516   1.000
    O87     O    0.67320   0.98825   0.13237   1.000
    O88     O    0.59048   0.90839   0.21130   1.000
    Zr89    Zr   0.85775   0.06166   0.27799   1.000
    O90     O    0.81058   0.04197   0.33304   1.000
    O91     O    0.90743   0.97620   0.26496   1.000
    O92     O    0.82664   0.04661   0.34674   1.000
    O93     O    0.89669   0.13212   0.27331   1.000
    O94     O    0.82031   0.04155   0.18998   1.000
    Zr95    Zr   0.37767   0.47637   0.31417   1.000
    O96     O    0.42090   0.56646   0.30483   1.000
    O97     O    0.40956   0.40839   0.28869   1.000
    O98     O    0.33657   0.48878   0.22455   1.000
    O99     O    0.42719   0.42287   0.28755   1.000
    O100    O    0.32684   0.48825   0.36760   1.000
    O101    O    0.34041   0.47918   0.38147   1.000
    Zr102   Zr   0.12228   0.97642   0.31419   1.000
    O103    O    0.07276   0.92293   0.28758   1.000
    O104    O    0.07911   0.06653   0.30482   1.000
    O105    O    0.09037   0.90845   0.28874   1.000
    O106    O    0.16340   0.98866   0.22457   1.000
    O107    O    0.15957   0.97917   0.38148   1.000
    O108    O    0.17313   0.98825   0.36763   1.000
    Zr109   Zr   0.85776   0.43836   0.77798   1.000
    O110    O    0.82665   0.45328   0.84672   1.000
    O111    O    0.81059   0.45793   0.83302   1.000
    O112    O    0.89670   0.36789   0.77330   1.000
    O113    O    0.82032   0.45845   0.68995   1.000
    O114    O    0.90745   0.52381   0.76495   1.000
    Zr115   Zr   0.87777   0.47643   0.18579   1.000
    O116    O    0.84048   0.47917   0.11846   1.000
    O117    O    0.83664   0.48878   0.27539   1.000
    O118    O    0.92727   0.42294   0.21240   1.000
    O119    O    0.90966   0.40846   0.21124   1.000
    O120    O    0.92092   0.56653   0.19516   1.000
    O121    O    0.82691   0.48825   0.13233   1.000
    Zr122   Zr   0.64232   0.93846   0.77798   1.000
    O123    O    0.67343   0.95341   0.84673   1.000
    O124    O    0.68949   0.95803   0.83302   1.000
    O125    O    0.60341   0.86797   0.77333   1.000
    O126    O    0.67976   0.95845   0.68997   1.000
    O127    O    0.59259   0.02390   0.76493   1.000
    Zr128   Zr   0.00000   0.00000   0.00000   1.000
    O129    O    0.92643   0.00106   0.98307   1.000
    O130    O    0.92467   0.00380   0.00642   1.000
    O131    O    0.07535   0.99609   0.99356   1.000
    O132    O    0.07359   0.99883   0.01692   1.000
    Zr133   Zr   0.12228   0.52358   0.81418   1.000
    O134    O    0.15957   0.52084   0.88147   1.000
    O135    O    0.17313   0.51176   0.86762   1.000
    O136    O    0.07912   0.43348   0.80482   1.000
    O137    O    0.09038   0.59155   0.78873   1.000
    O138    O    0.07277   0.57707   0.78757   1.000
    O139    O    0.16340   0.51123   0.72456   1.000
loop_
    _geom_bond_atom_site_label_1
    _geom_bond_atom_site_label_2
    _geom_bond_distance
    _geom_bond_site_symmetry_2
    _ccdc_geom_bond_type
    Zr16   O17       1.56843  1_545   S
    N14    O17       3.56330      .   S
    Zr16   O18       1.23094      .   S
    N13    O18       2.58282  1_554   S
    Zr16   O19       1.59940      .   S
    N1     O19       3.65863  1_565   S
    Zr16   O20       1.19515      .   S
    N7     O20       2.72441      .   S
    Zr16   O21       1.24575      .   S
    N7     O21       2.64609      .   S
    Zr16   O22       1.16235      .   S
    N13    O22       2.68309  1_554   S
    Zr23   O24       1.55049  1_565   S
    N4     O24       3.54508  1_655   S
    Zr23   O25       1.25511      .   S
    N6     O25       2.67548      .   S
    Zr23   O26       1.57567      .   S
    N13    O26       3.60628  1_544   S
    Zr23   O27       1.17560      .   S
    N1     O27       2.69513      .   S
    Zr23   O28       1.23830      .   S
    N1     O28       2.59917      .   S
    Zr29   O30       1.10487  1_545   S
    N3     O30       2.54521  1_545   S
    Zr29   O31       1.10177  1_545   S
    N3     O31       2.54823  1_545   S
    Zr29   O32       1.10508      .   S
    N1     O32       2.54549  1_565   S
    Zr29   O33       1.10155      .   S
    N1     O33       2.54886  1_565   S
    Zr34   O35       1.19503      .   S
    N4     O35       2.72423      .   S
    Zr34   O36       1.23087      .   S
    N3     O36       2.58262      .   S
    Zr34   O37       1.16226      .   S
    N3     O37       2.68289      .   S
    Zr34   O38       1.59943      .   S
    N10    O38       3.65874  1_565   S
    Zr34   O39       1.56825  1_545   S
    N6     O39       3.56300  1_455   S
    Zr34   O40       1.24565      .   S
    N4     O40       2.64590      .   S
    Zr41   O42       1.10471  1_455   S
    N2     O42       2.54501      .   S
    Zr41   O43       1.10129  1_455   S
    N2     O43       2.54835      .   S
    Zr41   O44       1.10480      .   S
    N0     O44       2.54529      .   S
    Zr41   O45       1.10149      .   S
    N0     O45       2.54849      .   S
    Zr46   O47       1.23872      .   S
    N13    O47       2.60055      .   S
    Zr46   O48       1.25515      .   S
    N11    O48       2.67558      .   S
    Zr46   O49       1.55053  1_545   S
    N12    O49       3.54521      .   S
    Zr46   O50       1.57594      .   S
    N1     O50       3.60717  1_565   S
    Zr46   O51       1.17613      .   S
    N13    O51       2.69634      .   S
    Zr52   O53       1.10158  1_554   S
    N8     O53       2.54868  1_554   S
    Zr52   O54       1.10492      .   S
    N8     O54       2.54545      .   S
    Zr52   O55       1.10504  1_554   S
    N15    O55       2.54552      .   S
    Zr52   O56       1.10158      .   S
    N15    O56       2.54885  1_556   S
    Zr57   O58       1.17545      .   S
    N2     O58       2.69455      .   S
    Zr57   O59       1.23812      .   S
    N2     O59       2.59862      .   S
    Zr57   O60       1.55049      .   S
    N11    O60       3.54517      .   S
    Zr57   O61       1.57630      .   S
    N15    O61       3.60759  1_556   S
    Zr57   O62       1.25515      .   S
    N12    O62       2.67558      .   S
    Zr63   O64       1.19514      .   S
    N14    O64       2.72439      .   S
    Zr63   O65       1.23106      .   S
    N2     O65       2.58294      .   S
    Zr63   O66       1.24573      .   S
    N14    O66       2.64608      .   S
    Zr63   O67       1.16223      .   S
    N2     O67       2.68352      .   S
    Zr63   O68       1.56838      .   S
    N7     O68       3.56323      .   S
    Zr63   O69       1.59929      .   S
    N15    O69       3.65828      .   S
    Zr70   O71       1.23833      .   S
    N8     O71       2.59930      .   S
    Zr70   O72       1.55047      .   S
    N5     O72       3.54507  1_655   S
    Zr70   O73       1.25511      .   S
    N9     O73       2.67548      .   S
    Zr70   O74       1.17563      .   S
    N8     O74       2.69525      .   S
    Zr70   O75       1.57582      .   S
    N0     O75       3.60742      .   S
    Zr76   O77       1.55049      .   S
    N14    O77       3.54516      .   S
    Zr76   O78       1.57597      .   S
    N8     O78       3.60724  1_554   S
    Zr76   O79       1.23838      .   S
    N0     O79       2.59937      .   S
    Zr76   O80       1.17568      .   S
    N0     O80       2.69532      .   S
    Zr76   O81       1.25516      .   S
    N7     O81       2.67559      .   S
    Zr82   O83       1.59920      .   S
    N3     O83       3.65820  1_545   S
    Zr82   O84       1.23089      .   S
    N10    O84       2.58244  1_556   S
    Zr82   O85       1.19516      .   S
    N12    O85       2.72442      .   S
    Zr82   O86       1.56845  1_565   S
    N11    O86       3.56333      .   S
    Zr82   O87       1.16207      .   S
    N10    O87       2.68301  1_556   S
    Zr82   O88       1.24575      .   S
    N12    O88       2.64611      .   S
    Zr89   O90       1.17606      .   S
    N3     O90       2.69618      .   S
    Zr89   O91       1.55050  1_545   S
    N9     O91       3.54511  1_455   S
    Zr89   O92       1.23864      .   S
    N3     O92       2.60042      .   S
    Zr89   O93       1.25510      .   S
    N5     O93       2.67546      .   S
    Zr89   O94       1.57603      .   S
    N10    O94       3.60746  1_566   S
    Zr95   O96       1.56841      .   S
    N12    O96       3.56329      .   S
    Zr95   O97       1.24575      .   S
    N11    O97       2.64612      .   S
    Zr95   O98       1.59951      .   S
    N8     O98       3.65884      .   S
    Zr95   O99       1.19516      .   S
    N11    O99       2.72443      .   S
    Zr95   O100      1.16185      .   S
    N0     O100      2.68287      .   S
    Zr95   O101      1.23079      .   S
    N0     O101      2.58216      .   S
    Zr102  O103      1.19504      .   S
    N9     O103      2.72427      .   S
    Zr102  O104      1.56823  1_565   S
    N5     O104      3.56298  1_655   S
    Zr102  O105      1.24569      .   S
    N9     O105      2.64590      .   S
    Zr102  O106      1.59929      .   S
    N13    O106      3.65842  1_545   S
    Zr102  O107      1.23077      .   S
    N1     O107      2.58215      .   S
    Zr102  O108      1.16195      .   S
    N1     O108      2.68272      .   S
    Zr109  O110      1.23820      .   S
    N15    O110      2.59891      .   S
    Zr109  O111      1.17553      .   S
    N15    O111      2.69483      .   S
    Zr109  O112      1.25510      .   S
    N4     O112      2.67548      .   S
    Zr109  O113      1.57619      .   S
    N2     O113      3.60794      .   S
    Zr109  O114      1.55045      .   S
    N6     O114      3.54503  1_455   S
    Zr115  O116      1.23149      .   S
    N15    O116      2.58214  1_556   S
    Zr115  O117      1.59924      .   S
    N2     O117      3.65807      .   S
    Zr115  O118      1.19501      .   S
    N5     O118      2.72419      .   S
    Zr115  O119      1.24563      .   S
    N5     O119      2.64586      .   S
    Zr115  O120      1.56817      .   S
    N9     O120      3.56285  1_455   S
    Zr115  O121      1.16222      .   S
    N15    O121      2.68310  1_556   S
    Zr122  O123      1.23837      .   S
    N10    O123      2.59933      .   S
    Zr122  O124      1.17567      .   S
    N10    O124      2.69530      .   S
    Zr122  O125      1.25516      .   S
    N14    O125      2.67559      .   S
    Zr122  O126      1.57559      .   S
    N3     O126      3.60602  1_545   S
    Zr122  O127      1.55054  1_565   S
    N7     O127      3.54523      .   S
    Zr128  O129      1.10464  1_454   S
    N10    O129      2.54493  1_565   S
    Zr128  O130      1.10127  1_455   S
    N10    O130      2.54817  1_566   S
    Zr128  O131      1.10164  1_544   S
    N13    O131      2.54815  1_544   S
    Zr128  O132      1.10485  1_545   S
    N13    O132      2.54505  1_545   S
    Zr133  O134      1.23081      .   S
    N8     O134      2.58222  1_554   S
    Zr133  O135      1.16196      .   S
    N8     O135      2.68281  1_554   S
    Zr133  O136      1.56819      .   S
    N4     O136      3.56290  1_655   S
    Zr133  O137      1.24563      .   S
    N6     O137      2.64585      .   S
    Zr133  O138      1.19500      .   S
    N6     O138      2.72419      .   S
    Zr133  O139      1.59948      .   S
    N0     O139      3.65880      .   S
