# CIF file generated by openbabel 2.4.90, see http://openbabel.sf.net
data_I
_chemical_name_common ''
_cell_length_a 9.387
_cell_length_b 10.539
_cell_length_c 10.5695
_cell_angle_alpha 91.038
_cell_angle_beta 99.331
_cell_angle_gamma 99.599
_space_group_name_H-M_alt 'P 1'
_space_group_name_Hall 'P 1'
loop_
    _symmetry_equiv_pos_as_xyz
    x,y,z
loop_
    _atom_site_label
    _atom_site_type_symbol
    _atom_site_fract_x
    _atom_site_fract_y
    _atom_site_fract_z
    _atom_site_occupancy
    H0      H    0.73265   0.66392   0.95786   1.000
    H1      H    0.22405   0.65843   0.08193   1.000
    H2      H    0.76632   0.04401   0.33439   1.000
    H3      H    0.27483   0.92030   0.34305   1.000
    H4      H    0.26735   0.33608   0.04216   1.000
    H5      H    0.77595   0.34157   0.91808   1.000
    H6      H    0.23367   0.95600   0.66563   1.000
    H7      H    0.72516   0.07971   0.65696   1.000
    C8      C    0.86133   0.54002   0.97035   1.000
    C9      C    0.98965   0.63023   0.01774   1.000
    C10     C    0.12535   0.58903   0.04624   1.000
    C11     C    0.63851   0.02965   0.45912   1.000
    C12     C    0.50949   0.98334   0.36979   1.000
    C13     C    0.37400   0.95496   0.41185   1.000
    C14     C    0.13867   0.45998   0.02967   1.000
    C15     C    0.01035   0.36977   0.98227   1.000
    C16     C    0.87465   0.41097   0.95378   1.000
    C17     C    0.36148   0.97035   0.54090   1.000
    C18     C    0.49050   0.01666   0.63022   1.000
    C19     C    0.62599   0.04504   0.58817   1.000
    O20     O    0.82767   0.81533   0.02114   1.000
    O21     O    0.08776   0.87705   0.96181   1.000
    O22     O    0.72497   0.57035   0.93910   1.000
    O23     O    0.66983   0.98388   0.18336   1.000
    O24     O    0.40724   0.03812   0.12503   1.000
    O25     O    0.77480   0.06092   0.42806   1.000
    O26     O    0.17232   0.18467   0.97887   1.000
    O27     O    0.91222   0.12295   0.03820   1.000
    O28     O    0.27503   0.42964   0.06092   1.000
    O29     O    0.33016   0.01612   0.81665   1.000
    O30     O    0.59275   0.96188   0.87498   1.000
    O31     O    0.22519   0.93909   0.57196   1.000
loop_
    _geom_bond_atom_site_label_1
    _geom_bond_atom_site_label_2
    _geom_bond_distance
    _geom_bond_site_symmetry_2
    _ccdc_geom_bond_type
    C9     C10       1.40241  1_655   S
    C9     C8        1.41806  1_554   S
    C14    C10       1.39686      .   S
    C14    O28       1.36119      .   S
    C14    C15       1.41805  1_554   S
    H4     O28       0.99071      .   S
    C10    H1        1.08920      .   S
    H2     O25       0.99077      .   S
    H3     C13       1.08916      .   S
    C12    C13       1.40209      .   S
    C12    C11       1.41835  1_565   S
    C13    C17       1.39675      .   S
    O25    C11       1.36115      .   S
    C11    C19       1.39675      .   S
    C17    O31       1.36114      .   S
    C17    C18       1.41836  1_565   S
    O31    H6        0.99078      .   S
    C19    C18       1.40210      .   S
    C19    H7        1.08916      .   S
    H5     C16       1.08921      .   S
    O22    H0        0.99073      .   S
    O22    C8        1.36121      .   S
    C16    C8        1.39685      .   S
    C16    C15       1.40240  1_655   S
