# CIF file generated by openbabel 2.4.90, see http://openbabel.sf.net
data_I
_chemical_name_common ''
_cell_length_a 9.387
_cell_length_b 10.539
_cell_length_c 10.5695
_cell_angle_alpha 91.038
_cell_angle_beta 99.331
_cell_angle_gamma 99.599
_space_group_name_H-M_alt 'P 1'
_space_group_name_Hall 'P 1'
loop_
    _symmetry_equiv_pos_as_xyz
    x,y,z
loop_
    _atom_site_label
    _atom_site_type_symbol
    _atom_site_fract_x
    _atom_site_fract_y
    _atom_site_fract_z
    _atom_site_occupancy
    P0      P    0.98927   0.79860   0.04227   1.000
    P1      P    0.50860   0.95942   0.20165   1.000
    P2      P    0.01073   0.20140   0.95775   1.000
    P3      P    0.49138   0.04058   0.79837   1.000
    H4      H    0.00192   0.80454   0.25125   1.000
    H5      H    0.50021   0.75013   0.19415   1.000
    H6      H    0.99808   0.19546   0.74876   1.000
    H7      H    0.49978   0.24987   0.80587   1.000
    O8      O    0.06313   0.83977   0.18949   1.000
    O9      O    0.43721   0.81096   0.16055   1.000
    O10     O    0.93687   0.16023   0.81053   1.000
    O11     O    0.56278   0.18904   0.83947   1.000
loop_
    _geom_bond_atom_site_label_1
    _geom_bond_atom_site_label_2
    _geom_bond_distance
    _geom_bond_site_symmetry_2
    _ccdc_geom_bond_type
    P0     O8        1.61732  1_655   S
    O9     H5        0.97646      .   S
    O9     P1        1.61777      .   S
    O8     H4        0.97643      .   S
    H6     O10       0.97645      .   S
    P3     O11       1.61776      .   S
    H7     O11       0.97645      .   S
    O10    P2        1.61731  1_655   S
