# CIF file generated by openbabel 2.4.90, see http://openbabel.sf.net
data_I
_chemical_name_common ''
_cell_length_a 9.387
_cell_length_b 10.539
_cell_length_c 10.5695
_cell_angle_alpha 91.038
_cell_angle_beta 99.331
_cell_angle_gamma 99.599
_space_group_name_H-M_alt 'P 1'
_space_group_name_Hall 'P 1'
loop_
    _symmetry_equiv_pos_as_xyz
    x,y,z
loop_
    _atom_site_label
    _atom_site_type_symbol
    _atom_site_fract_x
    _atom_site_fract_y
    _atom_site_fract_z
    _atom_site_occupancy
    Mc0     Mc   0.59275   0.96188   0.87498   1.000
    Mc1     Mc   0.66983   0.98388   0.18336   1.000
    Mc2     Mc   0.40724   0.03812   0.12503   1.000
    Mc3     Mc   0.33016   0.01612   0.81665   1.000
    Ts4     Ts   0.49999   0.00000   0.50001   1.000
    Mc5     Mc   0.91222   0.12295   0.03820   1.000
    Mc6     Mc   0.08776   0.87705   0.96181   1.000
    Mc7     Mc   0.82767   0.81533   0.02114   1.000
    Mc8     Mc   0.17232   0.18467   0.97887   1.000
    Ts9     Ts   0.00000   0.50000   0.00001   1.000
