# CIF file generated by openbabel 2.4.90, see http://openbabel.sf.net
data_I
_chemical_name_common ''
_cell_length_a 9.387
_cell_length_b 10.539
_cell_length_c 10.5695
_cell_angle_alpha 91.038
_cell_angle_beta 99.331
_cell_angle_gamma 99.599
_space_group_name_H-M_alt 'P 1'
_space_group_name_Hall 'P 1'
loop_
    _symmetry_equiv_pos_as_xyz
    x,y,z
loop_
    _atom_site_label
    _atom_site_type_symbol
    _atom_site_fract_x
    _atom_site_fract_y
    _atom_site_fract_z
    _atom_site_occupancy
    P0      P    0.98927   0.79860   0.04227   1.000
    P1      P    0.50860   0.95942   0.20165   1.000
    P2      P    0.01073   0.20140   0.95775   1.000
    P3      P    0.49138   0.04058   0.79837   1.000
    H4      H    0.00192   0.80454   0.25125   1.000
    H5      H    0.73265   0.66392   0.95786   1.000
    H6      H    0.22405   0.65843   0.08193   1.000
    H7      H    0.50021   0.75013   0.19415   1.000
    H8      H    0.76632   0.04401   0.33439   1.000
    H9      H    0.27483   0.92030   0.34305   1.000
    H10     H    0.99808   0.19546   0.74876   1.000
    H11     H    0.26735   0.33608   0.04216   1.000
    H12     H    0.77595   0.34157   0.91808   1.000
    H13     H    0.49978   0.24987   0.80587   1.000
    H14     H    0.23367   0.95600   0.66563   1.000
    H15     H    0.72516   0.07971   0.65696   1.000
    C16     C    0.86133   0.54002   0.97035   1.000
    C17     C    0.98965   0.63023   0.01774   1.000
    C18     C    0.12535   0.58903   0.04624   1.000
    C19     C    0.63851   0.02965   0.45912   1.000
    C20     C    0.50949   0.98334   0.36979   1.000
    C21     C    0.37400   0.95496   0.41185   1.000
    C22     C    0.13867   0.45998   0.02967   1.000
    C23     C    0.01035   0.36977   0.98227   1.000
    C24     C    0.87465   0.41097   0.95378   1.000
    C25     C    0.36148   0.97035   0.54090   1.000
    C26     C    0.49050   0.01666   0.63022   1.000
    C27     C    0.62599   0.04504   0.58817   1.000
    O28     O    0.06313   0.83977   0.18949   1.000
    O29     O    0.82767   0.81533   0.02114   1.000
    O30     O    0.08776   0.87705   0.96181   1.000
    O31     O    0.72497   0.57035   0.93910   1.000
    O32     O    0.43721   0.81096   0.16055   1.000
    O33     O    0.66983   0.98388   0.18336   1.000
    O34     O    0.40724   0.03812   0.12503   1.000
    O35     O    0.77480   0.06092   0.42806   1.000
    O36     O    0.93687   0.16023   0.81053   1.000
    O37     O    0.17232   0.18467   0.97887   1.000
    O38     O    0.91222   0.12295   0.03820   1.000
    O39     O    0.27503   0.42964   0.06092   1.000
    O40     O    0.56278   0.18904   0.83947   1.000
    O41     O    0.33016   0.01612   0.81665   1.000
    O42     O    0.59275   0.96188   0.87498   1.000
    O43     O    0.22519   0.93909   0.57196   1.000
loop_
    _geom_bond_atom_site_label_1
    _geom_bond_atom_site_label_2
    _geom_bond_distance
    _geom_bond_site_symmetry_2
    _ccdc_geom_bond_type
    C17    P0        1.78931      .   S
    C17    C18       1.40241  1_655   S
    C17    C16       1.41806  1_554   S
    O29    P0        1.53707      .   S
    C22    C18       1.39686      .   S
    C22    O39       1.36119      .   S
    C22    C23       1.41805  1_554   S
    O38    P2        1.51230  1_654   S
    H11    O39       0.99071      .   S
    P0     O28       1.61732  1_655   S
    P0     O30       1.51232  1_654   S
    C18    H6        1.08920      .   S
    O34    P1        1.51218  1_545   S
    O32    H7        0.97646      .   S
    O32    P1        1.61777      .   S
    O33    P1        1.53650      .   S
    O28    H4        0.97643      .   S
    P1     C20       1.78892      .   S
    H8     O35       0.99077      .   S
    H9     C21       1.08916      .   S
    C20    C21       1.40209      .   S
    C20    C19       1.41835  1_565   S
    C21    C25       1.39675      .   S
    O35    C19       1.36115      .   S
    C19    C27       1.39675      .   S
    C25    O43       1.36114      .   S
    C25    C26       1.41836  1_565   S
    O43    H14       0.99078      .   S
    C27    C26       1.40210      .   S
    C27    H15       1.08916      .   S
    C26    P3        1.78893      .   S
    H10    O36       0.97645      .   S
    P3     O41       1.53646      .   S
    P3     O40       1.61776      .   S
    P3     O42       1.51223  1_545   S
    H13    O40       0.97645      .   S
    O36    P2        1.61731  1_655   S
    H12    C24       1.08921      .   S
    O31    H5        0.99073      .   S
    O31    C16       1.36121      .   S
    C24    C16       1.39685      .   S
    C24    C23       1.40240  1_655   S
    P2     O37       1.53709      .   S
    P2     C23       1.78931      .   S
