# CIF file generated by openbabel 2.4.90, see http://openbabel.sf.net
data_I
_chemical_name_common ''
_cell_length_a 9.387
_cell_length_b 10.539
_cell_length_c 10.5695
_cell_angle_alpha 91.038
_cell_angle_beta 99.331
_cell_angle_gamma 99.599
_space_group_name_H-M_alt 'P 1'
_space_group_name_Hall 'P 1'
loop_
    _symmetry_equiv_pos_as_xyz
    x,y,z
loop_
    _atom_site_label
    _atom_site_type_symbol
    _atom_site_fract_x
    _atom_site_fract_y
    _atom_site_fract_z
    _atom_site_occupancy
    Zn0     Zn   0.24986   0.02034   0.97898   1.000
    Zn1     Zn   0.75012   0.97966   0.02103   1.000
    Ts2     Ts   0.19583   0.97258   0.97325   1.000
    Ts3     Ts   0.30232   0.02627   0.02766   1.000
    Ts4     Ts   0.22402   0.07512   0.97894   1.000
    Ts5     Ts   0.27663   0.01894   0.92487   1.000
    Ts6     Ts   0.77597   0.92488   0.02107   1.000
    Ts7     Ts   0.72336   0.98106   0.07514   1.000
    Ts8     Ts   0.80416   0.02742   0.02676   1.000
    Ts9     Ts   0.69767   0.97373   0.97235   1.000
loop_
    _geom_bond_atom_site_label_1
    _geom_bond_atom_site_label_2
    _geom_bond_distance
    _geom_bond_site_symmetry_2
    _ccdc_geom_bond_type
    Zn0    Ts2       0.64663  1_545   S
    Zn0    Ts3       0.64619  1_556   S
    Zn0    Ts4       0.66244      .   S
    Zn0    Ts5       0.66177      .   S
    Zn1    Ts6       0.66245      .   S
    Zn1    Ts7       0.66177      .   S
    Zn1    Ts8       0.64663  1_565   S
    Zn1    Ts9       0.64619  1_554   S
