# CIF file generated by openbabel 2.4.90, see http://openbabel.sf.net
data_I
_chemical_name_common ''
_cell_length_a 9.387
_cell_length_b 10.539
_cell_length_c 10.5695
_cell_angle_alpha 91.038
_cell_angle_beta 99.331
_cell_angle_gamma 99.599
_space_group_name_H-M_alt 'P 1'
_space_group_name_Hall 'P 1'
loop_
    _symmetry_equiv_pos_as_xyz
    x,y,z
loop_
    _atom_site_label
    _atom_site_type_symbol
    _atom_site_fract_x
    _atom_site_fract_y
    _atom_site_fract_z
    _atom_site_occupancy
    N0      N    0.48201   0.84017   0.18545   1.000
    N1      N    0.51798   0.15983   0.81457   1.000
    O2      O    0.50223   0.04711   0.63222   1.000
    N3      N    0.98189   0.18570   0.83901   1.000
    N4      N    0.01810   0.81430   0.16100   1.000
    O5      O    0.99811   0.36782   0.95226   1.000
    Zr6     Zr   0.75012   0.97966   0.02103   1.000
    O7      O    0.72001   0.98124   0.08191   1.000
    O8      O    0.77920   0.91803   0.02108   1.000
    O9      O    0.69111   0.97299   0.96626   1.000
    O10     O    0.81091   0.03339   0.02747   1.000
    Zr11    Zr   0.24986   0.02034   0.97898   1.000
    O12     O    0.22079   0.08197   0.97894   1.000
    O13     O    0.18908   0.96661   0.97254   1.000
    O14     O    0.30888   0.02701   0.03375   1.000
    O15     O    0.27998   0.01876   0.91811   1.000
loop_
    _geom_bond_atom_site_label_1
    _geom_bond_atom_site_label_2
    _geom_bond_distance
    _geom_bond_site_symmetry_2
    _ccdc_geom_bond_type
    N0     O2        5.12732  1_565   S
    N1     O2        2.21668      .   S
    N4     O5        5.12246  1_454   S
    N3     O5        2.21363      .   S
    Zr6    O7        0.74449      .   S
    N0     O7        2.85367      .   S
    Zr6    O8        0.74525      .   S
    N4     O8        2.86568  1_455   S
    Zr6    O9        0.72696  1_554   S
    N1     O9        3.07018  1_545   S
    Zr6    O10       0.72746  1_565   S
    N3     O10       3.06817  1_556   S
    Zr11   O12       0.74524      .   S
    N3     O12       2.86565  1_655   S
    Zr11   O13       0.72746  1_545   S
    N4     O13       3.06816  1_554   S
    Zr11   O14       0.72696  1_556   S
    N0     O14       3.07018  1_565   S
    Zr11   O15       0.74449      .   S
    N1     O15       2.85367      .   S
