# CIF file generated by openbabel 2.4.90, see http://openbabel.sf.net
data_I
_chemical_name_common ''
_cell_length_a 9.387
_cell_length_b 10.539
_cell_length_c 10.5695
_cell_angle_alpha 91.038
_cell_angle_beta 99.331
_cell_angle_gamma 99.599
_space_group_name_H-M_alt 'P 1'
_space_group_name_Hall 'P 1'
loop_
    _symmetry_equiv_pos_as_xyz
    x,y,z
loop_
    _atom_site_label
    _atom_site_type_symbol
    _atom_site_fract_x
    _atom_site_fract_y
    _atom_site_fract_z
    _atom_site_occupancy
    Zr0     Zr   0.75012   0.97966   0.02103   1.000
    Zr1     Zr   0.24986   0.02034   0.97898   1.000
    N2      N    0.48201   0.84017   0.18545   1.000
    N3      N    0.51798   0.15983   0.81457   1.000
    O4      O    0.63210   0.96632   0.91149   1.000
    O5      O    0.68990   0.98283   0.14278   1.000
    O6      O    0.36789   0.03367   0.08852   1.000
    O7      O    0.31009   0.01718   0.85723   1.000
    O8      O    0.50223   0.04711   0.63222   1.000
    N9      N    0.98189   0.18570   0.83901   1.000
    N10     N    0.01810   0.81430   0.16100   1.000
    O11     O    0.87170   0.08713   0.03391   1.000
    O12     O    0.12829   0.91287   0.96610   1.000
    O13     O    0.80829   0.85641   0.02112   1.000
    O14     O    0.19171   0.14359   0.97890   1.000
    O15     O    0.99811   0.36782   0.95226   1.000
loop_
    _geom_bond_atom_site_label_1
    _geom_bond_atom_site_label_2
    _geom_bond_distance
    _geom_bond_site_symmetry_2
    _ccdc_geom_bond_type
    N3     O4        2.60854  1_545   S
    Zr0    O4        1.45392  1_554   S
    N2     O5        2.36717      .   S
    Zr0    O5        1.48898      .   S
    N2     O6        2.60851  1_565   S
    Zr1    O6        1.45393  1_556   S
    N3     O7        2.36716      .   S
    Zr1    O7        1.48899      .   S
    N2     O8        5.12732  1_565   S
    N3     O8        2.21668      .   S
    N9     O11       2.60820  1_556   S
    Zr0    O11       1.45491  1_565   S
    N10    O12       2.60822  1_554   S
    Zr1    O12       1.45492  1_545   S
    N10    O13       2.37341  1_455   S
    Zr0    O13       1.49051      .   S
    N9     O14       2.37341  1_655   S
    Zr1    O14       1.49048      .   S
    N10    O15       5.12246  1_454   S
    N9     O15       2.21363      .   S
