# CIF file generated by openbabel 2.4.90, see http://openbabel.sf.net
data_I
_chemical_name_common ''
_cell_length_a 23.068
_cell_length_b 16.552
_cell_length_c 16.552
_cell_angle_alpha 90.011
_cell_angle_beta 89.999
_cell_angle_gamma 90.002
_space_group_name_H-M_alt 'P 1'
_space_group_name_Hall 'P 1'
loop_
    _symmetry_equiv_pos_as_xyz
    x,y,z
loop_
    _atom_site_label
    _atom_site_type_symbol
    _atom_site_fract_x
    _atom_site_fract_y
    _atom_site_fract_z
    _atom_site_occupancy
    Zn0     Zn   0.56988   0.37802   0.35726   1.000
    Zn1     Zn   0.06987   0.62199   0.64270   1.000
    Zn2     Zn   0.56987   0.62199   0.64270   1.000
    Zn3     Zn   0.06987   0.64273   0.37802   1.000
    Zn4     Zn   0.56988   0.64273   0.37802   1.000
    Zn5     Zn   0.06988   0.35728   0.62196   1.000
    Zn6     Zn   0.56988   0.35728   0.62196   1.000
    Zn7     Zn   0.18013   0.12199   0.85725   1.000
    Zn8     Zn   0.68012   0.12199   0.85725   1.000
    Zn9     Zn   0.18013   0.87801   0.14274   1.000
    Zn10    Zn   0.68013   0.87801   0.14274   1.000
    Zn11    Zn   0.18012   0.85728   0.87804   1.000
    Zn12    Zn   0.68012   0.85728   0.87804   1.000
    Zn13    Zn   0.18012   0.14272   0.12196   1.000
    Zn14    Zn   0.68012   0.14272   0.12196   1.000
    Zn15    Zn   0.43012   0.62199   0.64273   1.000
    Zn16    Zn   0.93012   0.62199   0.64273   1.000
    Zn17    Zn   0.43012   0.37802   0.35720   1.000
    Zn18    Zn   0.93013   0.37802   0.35720   1.000
    Zn19    Zn   0.43012   0.35728   0.62197   1.000
    Zn20    Zn   0.93013   0.35728   0.62197   1.000
    Zn21    Zn   0.43012   0.64273   0.37803   1.000
    Zn22    Zn   0.93012   0.64273   0.37803   1.000
    Zn23    Zn   0.31987   0.87802   0.14270   1.000
    Zn24    Zn   0.81988   0.87802   0.14270   1.000
    Zn25    Zn   0.31987   0.12200   0.85725   1.000
    Zn26    Zn   0.81987   0.12200   0.85725   1.000
    Zn27    Zn   0.31988   0.14272   0.12195   1.000
    Zn28    Zn   0.81988   0.14272   0.12195   1.000
    Zn29    Zn   0.31988   0.85729   0.87803   1.000
    Zn30    Zn   0.81988   0.85729   0.87803   1.000
    Zn31    Zn   0.06988   0.37802   0.35726   1.000
