# CIF file generated by openbabel 2.4.90, see http://openbabel.sf.net
data_I
_chemical_name_common ''
_cell_length_a 23.068
_cell_length_b 16.552
_cell_length_c 16.552
_cell_angle_alpha 90.011
_cell_angle_beta 89.999
_cell_angle_gamma 90.002
_space_group_name_H-M_alt 'P 1'
_space_group_name_Hall 'P 1'
loop_
    _symmetry_equiv_pos_as_xyz
    x,y,z
loop_
    _atom_site_label
    _atom_site_type_symbol
    _atom_site_fract_x
    _atom_site_fract_y
    _atom_site_fract_z
    _atom_site_occupancy
    Zr0     Zr   0.06988   0.37802   0.35726   1.000
    Zr1     Zr   0.56988   0.37802   0.35726   1.000
    Zr2     Zr   0.06987   0.62199   0.64270   1.000
    Zr3     Zr   0.56987   0.62199   0.64270   1.000
    Zr4     Zr   0.06987   0.64273   0.37802   1.000
    Zr5     Zr   0.56988   0.64273   0.37802   1.000
    Zr6     Zr   0.06988   0.35728   0.62196   1.000
    Zr7     Zr   0.56988   0.35728   0.62196   1.000
    Zr8     Zr   0.18013   0.12199   0.85725   1.000
    Zr9     Zr   0.68012   0.12199   0.85725   1.000
    Zr10    Zr   0.18013   0.87801   0.14274   1.000
    Zr11    Zr   0.68013   0.87801   0.14274   1.000
    Zr12    Zr   0.18012   0.85728   0.87804   1.000
    Zr13    Zr   0.68012   0.85728   0.87804   1.000
    Zr14    Zr   0.18012   0.14272   0.12196   1.000
    Zr15    Zr   0.68012   0.14272   0.12196   1.000
    Zr16    Zr   0.43012   0.62199   0.64273   1.000
    Zr17    Zr   0.93012   0.62199   0.64273   1.000
    Zr18    Zr   0.43012   0.37802   0.35720   1.000
    Zr19    Zr   0.93013   0.37802   0.35720   1.000
    Zr20    Zr   0.43012   0.35728   0.62197   1.000
    Zr21    Zr   0.93013   0.35728   0.62197   1.000
    Zr22    Zr   0.43012   0.64273   0.37803   1.000
    Zr23    Zr   0.93012   0.64273   0.37803   1.000
    Zr24    Zr   0.31987   0.87802   0.14270   1.000
    Zr25    Zr   0.81988   0.87802   0.14270   1.000
    Zr26    Zr   0.31987   0.12200   0.85725   1.000
    Zr27    Zr   0.81987   0.12200   0.85725   1.000
    Zr28    Zr   0.31988   0.14272   0.12195   1.000
    Zr29    Zr   0.81988   0.14272   0.12195   1.000
    Zr30    Zr   0.31988   0.85729   0.87803   1.000
    Zr31    Zr   0.81988   0.85729   0.87803   1.000
    N32     N    0.75001   0.27959   0.41682   1.000
    O33     O    0.72020   0.22753   0.29353   1.000
    O34     O    0.82182   0.30818   0.50785   1.000
    O35     O    0.66617   0.31419   0.41253   1.000
    O36     O    0.83384   0.31419   0.41251   1.000
    O37     O    0.67818   0.30818   0.50786   1.000
    O38     O    0.77981   0.22753   0.29352   1.000
    N39     N    0.00001   0.22050   0.91684   1.000
    O40     O    0.02981   0.27251   0.79354   1.000
    O41     O    0.07183   0.19188   0.00786   1.000
    O42     O    0.08384   0.18587   0.91254   1.000
    O43     O    0.92819   0.19188   0.00787   1.000
    O44     O    0.97021   0.27251   0.79354   1.000
    O45     O    0.91617   0.18587   0.91253   1.000
    N46     N    0.25000   0.58313   0.27952   1.000
    O47     O    0.33384   0.58744   0.31415   1.000
    O48     O    0.22020   0.70643   0.22751   1.000
    O49     O    0.17818   0.49210   0.30812   1.000
    O50     O    0.32182   0.49210   0.30811   1.000
    O51     O    0.27981   0.70644   0.22750   1.000
    O52     O    0.16617   0.58744   0.31414   1.000
    N53     N    0.00002   0.08314   0.22038   1.000
    O54     O    0.97021   0.20645   0.27242   1.000
    O55     O    0.91617   0.08744   0.18578   1.000
    O56     O    0.07183   0.99211   0.19182   1.000
    O57     O    0.02982   0.20645   0.27243   1.000
    O58     O    0.92819   0.99212   0.19180   1.000
    O59     O    0.08385   0.08744   0.18579   1.000
    N60     N    0.50001   0.22050   0.91684   1.000
    O61     O    0.52981   0.27251   0.79354   1.000
    O62     O    0.57183   0.19188   0.00786   1.000
    O63     O    0.41617   0.18587   0.91253   1.000
    O64     O    0.58384   0.18587   0.91254   1.000
    O65     O    0.42819   0.19188   0.00787   1.000
    O66     O    0.47021   0.27251   0.79354   1.000
    N67     N    0.25000   0.04319   0.90260   1.000
    O68     O    0.26747   0.07040   0.89136   1.000
    O69     O    0.23253   0.07040   0.89136   1.000
    N70     N    0.75000   0.72043   0.58315   1.000
    O71     O    0.83384   0.68582   0.58745   1.000
    O72     O    0.66616   0.68582   0.58744   1.000
    O73     O    0.72019   0.77248   0.70645   1.000
    O74     O    0.82182   0.69184   0.49212   1.000
    O75     O    0.67818   0.69183   0.49212   1.000
    O76     O    0.77980   0.77248   0.70645   1.000
    N77     N    0.75001   0.58313   0.27952   1.000
    O78     O    0.67818   0.49210   0.30812   1.000
    O79     O    0.83384   0.58744   0.31415   1.000
    O80     O    0.72020   0.70643   0.22751   1.000
    O81     O    0.66617   0.58744   0.31415   1.000
    O82     O    0.82182   0.49210   0.30811   1.000
    O83     O    0.77981   0.70644   0.22750   1.000
    N84     N    0.49999   0.77951   0.08313   1.000
    O85     O    0.41616   0.81414   0.08743   1.000
    O86     O    0.47019   0.72749   0.20644   1.000
    O87     O    0.42818   0.80813   0.99210   1.000
    O88     O    0.52979   0.72749   0.20644   1.000
    O89     O    0.57182   0.80813   0.99211   1.000
    O90     O    0.58383   0.81414   0.08745   1.000
    N91     N    0.99999   0.77951   0.08313   1.000
    O92     O    0.97019   0.72749   0.20645   1.000
    O93     O    0.91616   0.81414   0.08744   1.000
    O94     O    0.08383   0.81414   0.08745   1.000
    O95     O    0.92818   0.80813   0.99211   1.000
    O96     O    0.02979   0.72749   0.20644   1.000
    O97     O    0.07181   0.80813   0.99211   1.000
    N98     N    0.25000   0.90265   0.95684   1.000
    O99     O    0.26747   0.89140   0.92963   1.000
    O100    O    0.23253   0.89140   0.92963   1.000
    N101    N    0.00000   0.40264   0.54316   1.000
    O102    O    0.98253   0.39139   0.57037   1.000
    O103    O    0.01747   0.39139   0.57037   1.000
    N104    N    0.74999   0.41688   0.72046   1.000
    O105    O    0.66616   0.41257   0.68583   1.000
    O106    O    0.83383   0.41257   0.68584   1.000
    O107    O    0.77980   0.29357   0.77248   1.000
    O108    O    0.67818   0.50791   0.69183   1.000
    O109    O    0.82182   0.50791   0.69186   1.000
    O110    O    0.72019   0.29357   0.77248   1.000
    N111    N    0.50002   0.08314   0.22038   1.000
    O112    O    0.58385   0.08744   0.18579   1.000
    O113    O    0.52982   0.20645   0.27243   1.000
    O114    O    0.42819   0.99212   0.19180   1.000
    O115    O    0.57183   0.99211   0.19182   1.000
    O116    O    0.41617   0.08744   0.18578   1.000
    O117    O    0.47021   0.20645   0.27242   1.000
    N118    N    0.99998   0.91686   0.77961   1.000
    O119    O    0.07181   0.00789   0.80817   1.000
    O120    O    0.91615   0.91257   0.81420   1.000
    O121    O    0.97018   0.79356   0.72756   1.000
    O122    O    0.92817   0.00790   0.80817   1.000
    O123    O    0.08383   0.91256   0.81420   1.000
    O124    O    0.02978   0.79356   0.72755   1.000
    N125    N    0.24999   0.41688   0.72046   1.000
    O126    O    0.27980   0.29357   0.77248   1.000
    O127    O    0.16616   0.41257   0.68582   1.000
    O128    O    0.22019   0.29357   0.77248   1.000
    O129    O    0.32182   0.50791   0.69186   1.000
    O130    O    0.33383   0.41257   0.68584   1.000
    O131    O    0.17817   0.50791   0.69185   1.000
    N132    N    0.50000   0.40264   0.54316   1.000
    O133    O    0.51747   0.39139   0.57037   1.000
    O134    O    0.48253   0.39139   0.57037   1.000
    N135    N    0.25000   0.27959   0.41682   1.000
    O136    O    0.33384   0.31419   0.41251   1.000
    O137    O    0.27981   0.22753   0.29352   1.000
    O138    O    0.22020   0.22753   0.29353   1.000
    O139    O    0.16617   0.31419   0.41253   1.000
    O140    O    0.17818   0.30818   0.50786   1.000
    O141    O    0.32182   0.30818   0.50785   1.000
    N142    N    0.49998   0.91686   0.77961   1.000
    O143    O    0.58383   0.91256   0.81420   1.000
    O144    O    0.47018   0.79356   0.72756   1.000
    O145    O    0.42817   0.00790   0.80817   1.000
    O146    O    0.41615   0.91257   0.81420   1.000
    O147    O    0.52978   0.79356   0.72755   1.000
    O148    O    0.57181   0.00789   0.80817   1.000
    N149    N    0.00000   0.45683   0.40260   1.000
    O150    O    0.01747   0.42962   0.39136   1.000
    O151    O    0.98253   0.42962   0.39135   1.000
    N152    N    0.25000   0.72043   0.58315   1.000
    O153    O    0.22019   0.77248   0.70646   1.000
    O154    O    0.16616   0.68582   0.58745   1.000
    O155    O    0.27980   0.77248   0.70645   1.000
    O156    O    0.33383   0.68583   0.58745   1.000
    O157    O    0.32182   0.69184   0.49212   1.000
    O158    O    0.17818   0.69183   0.49212   1.000
    N159    N    0.25000   0.95682   0.09388   1.000
    O160    O    0.26747   0.92961   0.10512   1.000
    O161    O    0.23253   0.92961   0.10513   1.000
    N162    N    0.50000   0.59737   0.45682   1.000
    O163    O    0.48253   0.60862   0.42961   1.000
    O164    O    0.51747   0.60862   0.42961   1.000
    N165    N    1.00000   0.59737   0.45682   1.000
    O166    O    0.98253   0.60862   0.42961   1.000
    O167    O    0.01747   0.60862   0.42961   1.000
    N168    N    0.75000   0.09736   0.04315   1.000
    O169    O    0.76747   0.10861   0.07036   1.000
    O170    O    0.73253   0.10861   0.07036   1.000
    N171    N    0.50000   0.54318   0.59737   1.000
    O172    O    0.51747   0.57039   0.60860   1.000
    O173    O    0.48253   0.57039   0.60861   1.000
    N174    N    1.00000   0.54318   0.59737   1.000
    O175    O    0.01747   0.57039   0.60860   1.000
    O176    O    0.98253   0.57039   0.60861   1.000
    N177    N    0.25000   0.09736   0.04315   1.000
    O178    O    0.26747   0.10861   0.07036   1.000
    O179    O    0.23253   0.10861   0.07036   1.000
    N180    N    0.75000   0.90265   0.95684   1.000
    O181    O    0.76747   0.89140   0.92963   1.000
    O182    O    0.73253   0.89140   0.92963   1.000
    N183    N    0.75000   0.04319   0.90260   1.000
    O184    O    0.73253   0.07040   0.89136   1.000
    O185    O    0.76747   0.07040   0.89136   1.000
    N186    N    0.50000   0.45683   0.40260   1.000
    O187    O    0.51747   0.42962   0.39136   1.000
    O188    O    0.48253   0.42962   0.39135   1.000
    N189    N    0.75000   0.95682   0.09388   1.000
    O190    O    0.76747   0.92961   0.10512   1.000
    O191    O    0.73253   0.92961   0.10513   1.000
loop_
    _geom_bond_atom_site_label_1
    _geom_bond_atom_site_label_2
    _geom_bond_distance
    _geom_bond_site_symmetry_2
    _ccdc_geom_bond_type
    N32    O33       2.31936      .   S
    Zr15   O33       3.29974      .   S
    N32    O34       2.28879      .   S
    Zr21   O34       3.23562      .   S
    N32    O35       2.01828      .   S
    Zr1    O35       2.62439      .   S
    N32    O36       2.01821      .   S
    Zr19   O36       2.62447      .   S
    N32    O37       2.28888      .   S
    Zr7    O37       3.23553      .   S
    N32    O38       2.31939      .   S
    Zr29   O38       3.29978      .   S
    N39    O40       2.31946      .   S
    Zr6    O40       3.29988      .   S
    N39    O41       2.28891  1_556   S
    Zr14   O41       3.23583      .   S
    N39    O42       2.01830      .   S
    Zr8    O42       2.62455      .   S
    N39    O43       2.28900  1_456   S
    Zr29   O43       3.23570      .   S
    N39    O44       2.31946  1_455   S
    Zr21   O44       3.29992      .   S
    N39    O45       2.01839  1_455   S
    Zr27   O45       2.62472      .   S
    N46    O47       2.01830      .   S
    Zr22   O47       2.62456      .   S
    N46    O48       2.31955      .   S
    Zr10   O48       3.30002      .   S
    N46    O49       2.28892      .   S
    Zr0    O49       3.23557      .   S
    N46    O50       2.28893      .   S
    Zr18   O50       3.23545      .   S
    N46    O51       2.31961      .   S
    Zr24   O51       3.30019      .   S
    N46    O52       2.01835      .   S
    Zr4    O52       2.62474      .   S
    N53    O54       2.31938  1_455   S
    Zr19   O54       3.29965      .   S
    N53    O55       2.01832  1_455   S
    Zr29   O55       2.62452      .   S
    N53    O56       2.28872  1_545   S
    Zr10   O56       3.23528      .   S
    N53    O57       2.31942      .   S
    Zr0    O57       3.29981      .   S
    N53    O58       2.28885  1_445   S
    Zr25   O58       3.23557      .   S
    N53    O59       2.01807      .   S
    Zr14   O59       2.62406      .   S
    N60    O61       2.31947      .   S
    Zr7    O61       3.29988      .   S
    N60    O62       2.28891  1_556   S
    Zr15   O62       3.23583      .   S
    N60    O63       2.01840      .   S
    Zr26   O63       2.62474      .   S
    N60    O64       2.01830      .   S
    Zr9    O64       2.62454      .   S
    N60    O65       2.28901  1_556   S
    Zr28   O65       3.23571      .   S
    N60    O66       2.31947      .   S
    Zr20   O66       3.29992      .   S
    N67    O68       0.63238      .   S
    Zr26   O68       1.58418      .   S
    N67    O69       0.63239      .   S
    Zr8    O69       1.58419      .   S
    N70    O71       2.01829      .   S
    Zr17   O71       2.62447      .   S
    N70    O72       2.01822      .   S
    Zr3    O72       2.62419      .   S
    N70    O73       2.31945      .   S
    Zr13   O73       3.29990      .   S
    N70    O74       2.28882      .   S
    Zr23   O74       3.23543      .   S
    N70    O75       2.28884      .   S
    Zr5    O75       3.23547      .   S
    N70    O76       2.31944      .   S
    Zr31   O76       3.29985      .   S
    N77    O78       2.28891      .   S
    Zr1    O78       3.23556      .   S
    N77    O79       2.01829      .   S
    Zr23   O79       2.62456      .   S
    N77    O80       2.31956      .   S
    Zr11   O80       3.30004      .   S
    N77    O81       2.01836      .   S
    Zr5    O81       2.62470      .   S
    N77    O82       2.28892      .   S
    Zr19   O82       3.23545      .   S
    N77    O83       2.31962      .   S
    Zr25   O83       3.30021      .   S
    N84    O85       2.01831      .   S
    Zr24   O85       2.62445      .   S
    N84    O86       2.31960      .   S
    Zr22   O86       3.30001      .   S
    N84    O87       2.28906  1_554   S
    Zr30   O87       3.23553      .   S
    N84    O88       2.31960      .   S
    Zr5    O88       3.30005      .   S
    N84    O89       2.28893  1_554   S
    Zr13   O89       3.23560      .   S
    N84    O90       2.01839      .   S
    Zr11   O90       2.62476      .   S
    N91    O92       2.31957      .   S
    Zr23   O92       3.29999      .   S
    N91    O93       2.01830      .   S
    Zr25   O93       2.62443      .   S
    N91    O94       2.01839  1_655   S
    Zr10   O94       2.62476      .   S
    N91    O95       2.28896  1_554   S
    Zr31   O95       3.23563      .   S
    N91    O96       2.31958  1_655   S
    Zr4    O96       3.30003      .   S
    N91    O97       2.28895  1_654   S
    Zr12   O97       3.23561      .   S
    N98    O99       0.63242      .   S
    Zr30   O99       1.58422      .   S
    N98    O100      0.63240      .   S
    Zr12   O100      1.58416      .   S
    N101   O102      0.63245  1_455   S
    Zr21   O102      1.58421      .   S
    N101   O103      0.63246      .   S
    Zr6    O103      1.58422      .   S
    N104   O105      2.01826      .   S
    Zr7    O105      2.62452      .   S
    N104   O106      2.01834      .   S
    Zr21   O106      2.62469      .   S
    N104   O107      2.31960      .   S
    Zr27   O107      3.30011      .   S
    N104   O108      2.28905      .   S
    Zr3    O108      3.23559      .   S
    N104   O109      2.28890      .   S
    Zr17   O109      3.23554      .   S
    N104   O110      2.31959      .   S
    Zr9    O110      3.30007      .   S
    N111   O112      2.01807      .   S
    Zr15   O112      2.62405      .   S
    N111   O113      2.31943      .   S
    Zr1    O113      3.29982      .   S
    N111   O114      2.28886  1_545   S
    Zr24   O114      3.23558      .   S
    N111   O115      2.28872  1_545   S
    Zr11   O115      3.23527      .   S
    N111   O116      2.01836      .   S
    Zr28   O116      2.62448      .   S
    N111   O117      2.31939      .   S
    Zr18   O117      3.29966      .   S
    N118   O119      2.28880  1_665   S
    Zr8    O119      3.23552      .   S
    N118   O120      2.01806      .   S
    Zr31   O120      2.62404      .   S
    N118   O121      2.31939      .   S
    Zr17   O121      3.29977      .   S
    N118   O122      2.28871  1_565   S
    Zr27   O122      3.23527      .   S
    N118   O123      2.01834  1_655   S
    Zr12   O123      2.62459      .   S
    N118   O124      2.31951  1_655   S
    Zr2    O124      3.30012      .   S
    N125   O126      2.31959      .   S
    Zr26   O126      3.30010      .   S
    N125   O127      2.01833      .   S
    Zr6    O127      2.62445      .   S
    N125   O128      2.31959      .   S
    Zr8    O128      3.30005      .   S
    N125   O129      2.28890      .   S
    Zr16   O129      3.23554      .   S
    N125   O130      2.01834      .   S
    Zr20   O130      2.62469      .   S
    N125   O131      2.28897      .   S
    Zr2    O131      3.23569      .   S
    N132   O133      0.63246      .   S
    Zr7    O133      1.58422      .   S
    N132   O134      0.63246      .   S
    Zr20   O134      1.58424      .   S
    N135   O136      2.01820      .   S
    Zr18   O136      2.62447      .   S
    N135   O137      2.31939      .   S
    Zr28   O137      3.29977      .   S
    N135   O138      2.31936      .   S
    Zr14   O138      3.29973      .   S
    N135   O139      2.01829      .   S
    Zr0    O139      2.62439      .   S
    N135   O140      2.28888      .   S
    Zr6    O140      3.23553      .   S
    N135   O141      2.28879      .   S
    Zr20   O141      3.23561      .   S
    N142   O143      2.01835      .   S
    Zr13   O143      2.62460      .   S
    N142   O144      2.31940      .   S
    Zr16   O144      3.29977      .   S
    N142   O145      2.28872  1_565   S
    Zr26   O145      3.23529      .   S
    N142   O146      2.01807      .   S
    Zr30   O146      2.62404      .   S
    N142   O147      2.31951      .   S
    Zr3    O147      3.30012      .   S
    N142   O148      2.28880  1_565   S
    Zr9    O148      3.23551      .   S
    N149   O150      0.63232      .   S
    Zr0    O150      1.58407      .   S
    N149   O151      0.63238  1_455   S
    Zr19   O151      1.58433      .   S
    N152   O153      2.31943      .   S
    Zr12   O153      3.29987      .   S
    N152   O154      2.01823      .   S
    Zr2    O154      2.62420      .   S
    N152   O155      2.31941      .   S
    Zr30   O155      3.29982      .   S
    N152   O156      2.01828      .   S
    Zr16   O156      2.62446      .   S
    N152   O157      2.28883      .   S
    Zr22   O157      3.23544      .   S
    N152   O158      2.28886      .   S
    Zr4    O158      3.23549      .   S
    N159   O160      0.63234      .   S
    Zr24   O160      1.60558      .   S
    N159   O161      0.63238      .   S
    Zr10   O161      1.60575      .   S
    N162   O163      0.63240      .   S
    Zr22   O163      1.58418      .   S
    N162   O164      0.63240      .   S
    Zr5    O164      1.58419      .   S
    N165   O166      0.63239      .   S
    Zr23   O166      1.58415      .   S
    N165   O167      0.63240  1_655   S
    Zr4    O167      1.58419      .   S
    N168   O169      0.63240      .   S
    Zr29   O169      1.58417      .   S
    N168   O170      0.63242      .   S
    Zr15   O170      1.58423      .   S
    N171   O172      0.63234      .   S
    Zr3    O172      1.58402      .   S
    N171   O173      0.63238      .   S
    Zr16   O173      1.58415      .   S
    N174   O175      0.63234  1_655   S
    Zr2    O175      1.58402      .   S
    N174   O176      0.63237      .   S
    Zr17   O176      1.58413      .   S
    N177   O178      0.63240      .   S
    Zr28   O178      1.58417      .   S
    N177   O179      0.63242      .   S
    Zr14   O179      1.58422      .   S
    N180   O181      0.63242      .   S
    Zr31   O181      1.58423      .   S
    N180   O182      0.63240      .   S
    Zr13   O182      1.58415      .   S
    N183   O184      0.63239      .   S
    Zr9    O184      1.58420      .   S
    N183   O185      0.63238      .   S
    Zr27   O185      1.58418      .   S
    N186   O187      0.63232      .   S
    Zr1    O187      1.58407      .   S
    N186   O188      0.63239      .   S
    Zr18   O188      1.58435      .   S
    N189   O190      0.63234      .   S
    Zr25   O190      1.60558      .   S
    N189   O191      0.63239      .   S
    Zr11   O191      1.60576      .   S
