# CIF file generated by openbabel 2.4.90, see http://openbabel.sf.net
data_I
_chemical_name_common ''
_cell_length_a 12.16
_cell_length_b 12.162
_cell_length_c 12.711
_cell_angle_alpha 102.47
_cell_angle_beta 102.441
_cell_angle_gamma 103.409
_space_group_name_H-M_alt 'P 1'
_space_group_name_Hall 'P 1'
loop_
    _symmetry_equiv_pos_as_xyz
    x,y,z
loop_
    _atom_site_label
    _atom_site_type_symbol
    _atom_site_fract_x
    _atom_site_fract_y
    _atom_site_fract_z
    _atom_site_occupancy
    H0      H    0.04733   0.09511   0.99001   1.000
    H1      H    0.19814   0.02436   0.10029   1.000
    H2      H    0.28994   0.33969   0.37253   1.000
    H3      H    0.13404   0.40619   0.26602   1.000
    H4      H    0.60435   0.17383   0.16575   1.000
    H5      H    0.51949   0.00000   0.81140   1.000
    H6      H    0.90468   0.95331   0.51028   1.000
    H7      H    0.97565   0.80246   0.40018   1.000
    H8      H    0.66052   0.71036   0.12770   1.000
    H9      H    0.59395   0.86643   0.23394   1.000
    H10     H    0.82588   0.39552   0.33460   1.000
    H11     H    0.99051   0.48117   0.68874   1.000
    H12     H    0.95271   0.90493   0.00000   1.000
    H13     H    0.80190   0.97568   0.89965   1.000
    H14     H    0.71010   0.66036   0.62741   1.000
    H15     H    0.86599   0.59385   0.73392   1.000
    H16     H    0.39568   0.82621   0.83419   1.000
    H17     H    0.48054   0.99008   0.18850   1.000
    H18     H    0.09536   0.04674   0.48966   1.000
    H19     H    0.02438   0.19758   0.59976   1.000
    H20     H    0.33951   0.28969   0.87221   1.000
    H21     H    0.40608   0.13362   0.76600   1.000
    H22     H    0.17416   0.60452   0.66534   1.000
    H23     H    0.00000   0.51887   0.31120   1.000
    C24     C    0.08027   0.25444   0.12036   1.000
    C25     C    0.09994   0.14735   0.07436   1.000
    C26     C    0.18424   0.10819   0.13606   1.000
    C27     C    0.25273   0.17713   0.24420   1.000
    C28     C    0.23584   0.28592   0.28905   1.000
    C29     C    0.14924   0.32369   0.22842   1.000
    C30     C    0.56852   0.10355   0.98685   1.000
    C31     C    0.55835   0.09749   0.09358   1.000
    C32     C    0.50982   0.00000   0.89362   1.000
    C33     C    0.74547   0.92023   0.37978   1.000
    C34     C    0.85255   0.90064   0.42591   1.000
    C35     C    0.89182   0.81630   0.36434   1.000
    C36     C    0.82296   0.74768   0.25622   1.000
    C37     C    0.71421   0.76453   0.21121   1.000
    C38     C    0.67638   0.85122   0.27168   1.000
    C39     C    0.89656   0.43173   0.51345   1.000
    C40     C    0.90235   0.44160   0.40661   1.000
    C41     C    0.99508   0.49057   0.60645   1.000
    C42     C    0.91977   0.74560   0.87958   1.000
    C43     C    0.90010   0.85269   0.92558   1.000
    C44     C    0.81580   0.89186   0.86388   1.000
    C45     C    0.74730   0.82291   0.75574   1.000
    C46     C    0.76420   0.71413   0.71089   1.000
    C47     C    0.85079   0.67635   0.77152   1.000
    C48     C    0.43150   0.89649   0.01309   1.000
    C49     C    0.44167   0.90255   0.90636   1.000
    C50     C    0.49021   0.99483   0.10632   1.000
    C51     C    0.25457   0.07982   0.62015   1.000
    C52     C    0.14748   0.09940   0.57403   1.000
    C53     C    0.10821   0.18375   0.63559   1.000
    C54     C    0.17707   0.25237   0.74372   1.000
    C55     C    0.28582   0.23551   0.78873   1.000
    C56     C    0.32365   0.14883   0.72825   1.000
    C57     C    0.10348   0.56832   0.48649   1.000
    C58     C    0.09768   0.55844   0.59333   1.000
    C59     C    0.00000   0.50947   0.39349   1.000
loop_
    _geom_bond_atom_site_label_1
    _geom_bond_atom_site_label_2
    _geom_bond_distance
    _geom_bond_site_symmetry_2
    _ccdc_geom_bond_type
    H12    C43       0.99945  1_554   S
    C48    C50       1.40423      .   S
    C48    C49       1.40444  1_554   S
    C25    C24       1.40409      .   S
    C25    C26       1.39070      .   S
    C25    H0        1.08821  1_554   S
    C31    C50       1.39173  1_545   S
    C31    H4        1.08932      .   S
    C31    C30       1.40443  1_554   S
    H1     C26       1.08969      .   S
    C50    H17       1.08821      .   S
    C24    C29       1.40563      .   S
    H8     C37       1.08949      .   S
    C26    C27       1.40400      .   S
    C37    C36       1.40300      .   S
    C37    C38       1.39327      .   S
    C29    H3        1.08916      .   S
    C29    C28       1.39335      .   S
    H9     C38       1.08915      .   S
    C27    C28       1.40301      .   S
    C36    C35       1.40396      .   S
    C38    C33       1.40564      .   S
    C28    H2        1.08924      .   S
    H23    C59       1.07648      .   S
    H10    C40       1.08936      .   S
    C35    H7        1.08975      .   S
    C35    C34       1.39071      .   S
    C33    C34       1.40406      .   S
    C59    C40       1.34509  1_455   S
    C59    C57       1.43840      .   S
    C40    C39       1.40406      .   S
    C34    H6        1.08826      .   S
    C57    C58       1.40408      .   S
    H18    C52       1.08824      .   S
    C39    C41       1.40417      .   S
    C52    C51       1.40405      .   S
    C52    C53       1.39065      .   S
    C58    C41       1.39186  1_455   S
    C58    H22       1.08935      .   S
    H19    C53       1.08972      .   S
    C41    H11       1.08813      .   S
    C51    C56       1.40559      .   S
    H14    C46       1.08925      .   S
    C53    C54       1.40405      .   S
    C46    C45       1.40299      .   S
    C46    C47       1.39334      .   S
    C56    H21       1.08917      .   S
    C56    C55       1.39334      .   S
    H15    C47       1.08917      .   S
    C54    C55       1.40300      .   S
    C45    C44       1.40404      .   S
    C47    C42       1.40564      .   S
    C55    H20       1.08922      .   S
    H5     C32       1.07657      .   S
    H16    C49       1.08932      .   S
    C44    H13       1.08968      .   S
    C44    C43       1.39070      .   S
    C42    C43       1.40407      .   S
    C32    C49       1.34267  1_545   S
    C32    C30       1.44011      .   S
