# CIF file generated by openbabel 2.4.90, see http://openbabel.sf.net
data_I
_chemical_name_common ''
_cell_length_a 12.16
_cell_length_b 12.162
_cell_length_c 12.711
_cell_angle_alpha 102.47
_cell_angle_beta 102.441
_cell_angle_gamma 103.409
_space_group_name_H-M_alt 'P 1'
_space_group_name_Hall 'P 1'
loop_
    _symmetry_equiv_pos_as_xyz
    x,y,z
loop_
    _atom_site_label
    _atom_site_type_symbol
    _atom_site_fract_x
    _atom_site_fract_y
    _atom_site_fract_z
    _atom_site_occupancy
    Ba0     Ba   0.20443   0.79546   0.24971   1.000
    Zn1     Zn   0.82283   0.42676   0.04868   1.000
    Zn2     Zn   0.57342   0.17775   0.45262   1.000
    Zn3     Zn   0.17721   0.57328   0.95127   1.000
    Zn4     Zn   0.42662   0.82230   0.54733   1.000
    Ba5     Ba   0.79560   0.20458   0.75023   1.000
