# CIF file generated by openbabel 2.4.90, see http://openbabel.sf.net
data_I
_chemical_name_common ''
_cell_length_a 12.16
_cell_length_b 12.162
_cell_length_c 12.711
_cell_angle_alpha 102.47
_cell_angle_beta 102.441
_cell_angle_gamma 103.409
_space_group_name_H-M_alt 'P 1'
_space_group_name_Hall 'P 1'
loop_
    _symmetry_equiv_pos_as_xyz
    x,y,z
loop_
    _atom_site_label
    _atom_site_type_symbol
    _atom_site_fract_x
    _atom_site_fract_y
    _atom_site_fract_z
    _atom_site_occupancy
    C0      C    0.98327   0.28942   0.05464   1.000
    C1      C    0.34329   0.13388   0.31030   1.000
    C2      C    0.64237   0.21296   0.97154   1.000
    C3      C    0.71033   0.01721   0.44541   1.000
    C4      C    0.86618   0.65689   0.19036   1.000
    C5      C    0.78717   0.35814   0.52912   1.000
    C6      C    0.01676   0.71062   0.94530   1.000
    C7      C    0.65675   0.86617   0.68964   1.000
    C8      C    0.35766   0.78708   0.02840   1.000
    C9      C    0.28970   0.98283   0.55453   1.000
    C10     C    0.13385   0.34315   0.80958   1.000
    C11     C    0.21287   0.64190   0.47082   1.000
