# CIF file generated by openbabel 2.4.90, see http://openbabel.sf.net
data_I
_chemical_name_common ''
_cell_length_a 15.41
_cell_length_b 21.433
_cell_length_c 21.434
_cell_angle_alpha 119.984
_cell_angle_beta 89.984
_cell_angle_gamma 90.008
_space_group_name_H-M_alt 'P 1'
_space_group_name_Hall 'P 1'
loop_
    _symmetry_equiv_pos_as_xyz
    x,y,z
loop_
    _atom_site_label
    _atom_site_type_symbol
    _atom_site_fract_x
    _atom_site_fract_y
    _atom_site_fract_z
    _atom_site_occupancy
    H0      H    0.06718   0.15364   0.40672   1.000
    H1      H    0.56720   0.15364   0.40672   1.000
    H2      H    0.27059   0.06634   0.41130   1.000
    H3      H    0.77060   0.06634   0.41130   1.000
    H4      H    0.33798   0.15978   0.52402   1.000
    H5      H    0.83799   0.15978   0.52402   1.000
    H6      H    0.50079   0.06172   0.29406   1.000
    H7      H    0.00000   0.06172   0.29406   1.000
    H8      H    0.40048   0.25314   0.84620   1.000
    H9      H    0.90049   0.25314   0.84628   1.000
    H10     H    0.10394   0.34508   0.93371   1.000
    H11     H    0.60394   0.34508   0.93370   1.000
    H12     H    0.17133   0.36432   0.84018   1.000
    H13     H    0.67134   0.36432   0.84018   1.000
    H14     H    0.33407   0.23243   0.93820   1.000
    H15     H    0.83408   0.23242   0.93827   1.000
    H16     H    0.23375   0.59316   0.74682   1.000
    H17     H    0.73376   0.59316   0.74682   1.000
    H18     H    0.43723   0.58875   0.65499   1.000
    H19     H    0.93724   0.58875   0.65499   1.000
    H20     H    0.00459   0.47596   0.63563   1.000
    H21     H    0.50460   0.47596   0.63563   1.000
    H22     H    0.16737   0.70589   0.76763   1.000
    H23     H    0.66738   0.70589   0.76763   1.000
    H24     H    0.06714   0.84632   0.59317   1.000
    H25     H    0.56715   0.84633   0.59317   1.000
    H26     H    0.27061   0.93375   0.58871   1.000
    H27     H    0.77063   0.93375   0.58871   1.000
    H28     H    0.33797   0.84027   0.47596   1.000
    H29     H    0.83798   0.84027   0.47596   1.000
    H30     H    0.50078   0.93829   0.70586   1.000
    H31     H    0.00000   0.93828   0.70586   1.000
    H32     H    0.40048   0.74688   0.15362   1.000
    H33     H    0.90049   0.74689   0.15362   1.000
    H34     H    0.10395   0.65488   0.06630   1.000
    H35     H    0.60396   0.65489   0.06633   1.000
    H36     H    0.17137   0.63565   0.15982   1.000
    H37     H    0.67138   0.63565   0.15982   1.000
    H38     H    0.33404   0.76759   0.06167   1.000
    H39     H    0.83405   0.76759   0.06167   1.000
    H40     H    0.23379   0.40684   0.25312   1.000
    H41     H    0.73380   0.40684   0.25312   1.000
    H42     H    0.43718   0.41120   0.34490   1.000
    H43     H    0.93720   0.41120   0.34490   1.000
    H44     H    0.00456   0.52401   0.36428   1.000
    H45     H    0.50457   0.52401   0.36428   1.000
    H46     H    0.16740   0.29410   0.23230   1.000
    H47     H    0.66741   0.29410   0.23230   1.000
    H48     H    0.26623   0.74687   0.59320   1.000
    H49     H    0.76625   0.74687   0.59320   1.000
    H50     H    0.06280   0.65506   0.58873   1.000
    H51     H    0.56281   0.65506   0.58873   1.000
    H52     H    0.49542   0.63569   0.47596   1.000
    H53     H    0.99543   0.63569   0.47596   1.000
    H54     H    0.33263   0.76768   0.70591   1.000
    H55     H    0.83264   0.76769   0.70591   1.000
    H56     H    0.43284   0.40678   0.15366   1.000
    H57     H    0.93285   0.40678   0.15366   1.000
    H58     H    0.22942   0.41131   0.06629   1.000
    H59     H    0.72943   0.41131   0.06629   1.000
    H60     H    0.16205   0.52404   0.15977   1.000
    H61     H    0.66206   0.52404   0.15977   1.000
    H62     H    0.99922   0.29410   0.06171   1.000
    H63     H    0.49923   0.29410   0.06171   1.000
    H64     H    0.09955   0.84631   0.25314   1.000
    H65     H    0.59956   0.84631   0.25314   1.000
    H66     H    0.39605   0.93375   0.34510   1.000
    H67     H    0.89607   0.93375   0.34510   1.000
    H68     H    0.32866   0.84023   0.36435   1.000
    H69     H    0.82867   0.84023   0.36435   1.000
    H70     H    0.16597   0.93829   0.23241   1.000
    H71     H    0.66598   0.93829   0.23241   1.000
    H72     H    0.26624   0.25317   0.40689   1.000
    H73     H    0.76625   0.25317   0.40689   1.000
    H74     H    0.06281   0.34494   0.41115   1.000
    H75     H    0.56282   0.34494   0.41115   1.000
    H76     H    0.49547   0.36433   0.52398   1.000
    H77     H    0.99548   0.36433   0.52398   1.000
    H78     H    0.33260   0.23233   0.29412   1.000
    H79     H    0.83261   0.23233   0.29412   1.000
    H80     H    0.43286   0.59325   0.84636   1.000
    H81     H    0.93287   0.59325   0.84630   1.000
    H82     H    0.22937   0.58865   0.93369   1.000
    H83     H    0.72938   0.58865   0.93300   1.000
    H84     H    0.16199   0.47594   0.84021   1.000
    H85     H    0.66200   0.47593   0.84020   1.000
    H86     H    0.99925   0.70591   0.93830   1.000
    H87     H    0.49926   0.70591   0.93831   1.000
    C88     C    0.63080   0.34372   0.26197   1.000
    C89     C    0.04710   0.34393   0.28767   1.000
    C90     C    0.54711   0.34393   0.28767   1.000
    C91     C    0.43649   0.25340   0.21015   1.000
    H92     H    0.09953   0.15366   0.74680   1.000
    H93     H    0.59954   0.15366   0.74680   1.000
    H94     H    0.39610   0.06636   0.65493   1.000
    H95     H    0.89612   0.06636   0.65493   1.000
    H96     H    0.32868   0.15984   0.63567   1.000
    H97     H    0.82869   0.15984   0.63567   1.000
    H98     H    0.16597   0.06171   0.76761   1.000
    H99     H    0.66599   0.06172   0.76761   1.000
    C100    C    0.00031   0.21801   0.54070   1.000
    C101    C    0.50032   0.21801   0.54077   1.000
    C102    C    0.00231   0.13395   0.40746   1.000
    C103    C    0.50232   0.13395   0.40746   1.000
    C104    C    0.33581   0.08509   0.40980   1.000
    C105    C    0.83582   0.08509   0.40980   1.000
    C106    C    0.37381   0.13732   0.47360   1.000
    C107    C    0.87382   0.13732   0.47360   1.000
    C108    C    0.45784   0.16213   0.47303   1.000
    C109    C    0.95785   0.16213   0.47303   1.000
    C110    C    0.46418   0.08169   0.34369   1.000
    C111    C    0.96420   0.08169   0.34369   1.000
    C112    C    0.38048   0.05624   0.34395   1.000
    C113    C    0.88050   0.05624   0.34395   1.000
    C114    C    0.26983   0.04326   0.25343   1.000
    C115    C    0.76984   0.04326   0.25343   1.000
    C116    C    0.33361   0.32286   0.78190   1.000
    C117    C    0.83362   0.32286   0.78191   1.000
    C118    C    0.33562   0.27358   0.86599   1.000
    C119    C    0.83563   0.27358   0.86599   1.000
    C120    C    0.49761   0.32472   0.40973   1.000
    C121    C    0.99762   0.32472   0.40973   1.000
    C122    C    0.45963   0.33635   0.47350   1.000
    C123    C    0.95965   0.33635   0.47358   1.000
    C124    C    0.37561   0.31100   0.47308   1.000
    C125    C    0.16914   0.32481   0.91493   1.000
    C126    C    0.66915   0.32481   0.91493   1.000
    C127    C    0.20714   0.33637   0.86266   1.000
    C128    C    0.70715   0.33637   0.86266   1.000
    C129    C    0.29115   0.31098   0.83782   1.000
    C130    C    0.79116   0.31098   0.83782   1.000
    C131    C    0.29748   0.26208   0.91829   1.000
    C132    C    0.79749   0.26208   0.91829   1.000
    C133    C    0.21379   0.28779   0.94376   1.000
    C134    C    0.71380   0.28779   0.94376   1.000
    C135    C    0.10317   0.21020   0.95674   1.000
    C136    C    0.60317   0.21020   0.95674   1.000
    C137    C    0.16688   0.45912   0.67705   1.000
    C138    C    0.66690   0.45912   0.67705   1.000
    C139    C    0.16889   0.59246   0.72640   1.000
    C140    C    0.66890   0.59246   0.72640   1.000
    C141    C    0.00242   0.59021   0.67522   1.000
    C142    C    0.50243   0.59021   0.67520   1.000
    C143    C    0.04041   0.52638   0.66361   1.000
    C144    C    0.54042   0.52638   0.66361   1.000
    C145    C    0.12442   0.52690   0.68897   1.000
    C146    C    0.62443   0.52690   0.68897   1.000
    C147    C    0.13077   0.65627   0.73795   1.000
    C148    C    0.63078   0.65627   0.73795   1.000
    C149    C    0.04710   0.65604   0.71225   1.000
    C150    C    0.54711   0.65604   0.71225   1.000
    C151    C    0.43649   0.74658   0.78981   1.000
    C152    C    0.93650   0.74658   0.78981   1.000
    C153    C    0.00025   0.78197   0.45915   1.000
    C154    C    0.50027   0.78198   0.45915   1.000
    C155    C    0.00228   0.86604   0.59245   1.000
    C156    C    0.50229   0.86604   0.59245   1.000
    C157    C    0.33582   0.91497   0.59018   1.000
    C158    C    0.83583   0.91497   0.59018   1.000
    C159    C    0.37380   0.86272   0.52637   1.000
    C160    C    0.87381   0.86272   0.52637   1.000
    C161    C    0.45781   0.83788   0.52690   1.000
    C162    C    0.95782   0.83788   0.52690   1.000
    C163    C    0.46418   0.91832   0.65624   1.000
    C164    C    0.96419   0.91832   0.65624   1.000
    C165    C    0.38049   0.94379   0.65601   1.000
    C166    C    0.88050   0.94380   0.65601   1.000
    C167    C    0.26983   0.95675   0.74655   1.000
    C168    C    0.76984   0.95675   0.74655   1.000
    C169    C    0.33365   0.67715   0.21803   1.000
    C170    C    0.83366   0.67716   0.21804   1.000
    C171    C    0.33562   0.72643   0.13394   1.000
    C172    C    0.83563   0.72643   0.13395   1.000
    C173    C    0.16915   0.67517   0.08500   1.000
    C174    C    0.66916   0.67517   0.08508   1.000
    C175    C    0.20717   0.66362   0.13730   1.000
    C176    C    0.70718   0.66362   0.13733   1.000
    C177    C    0.29117   0.68902   0.16214   1.000
    C178    C    0.79118   0.68903   0.16214   1.000
    C179    C    0.29747   0.73793   0.08167   1.000
    C180    C    0.79748   0.73793   0.08167   1.000
    C181    C    0.21378   0.71220   0.05623   1.000
    C182    C    0.71379   0.71220   0.05620   1.000
    C183    C    0.10316   0.78979   0.04320   1.000
    C184    C    0.60317   0.78979   0.04320   1.000
    C185    C    0.16689   0.54087   0.32290   1.000
    C186    C    0.66691   0.54087   0.32290   1.000
    C187    C    0.16891   0.40753   0.27353   1.000
    C188    C    0.66893   0.40753   0.27353   1.000
    C189    C    0.00240   0.40976   0.32468   1.000
    C190    C    0.50241   0.40976   0.32468   1.000
    C191    C    0.04039   0.47359   0.33630   1.000
    C192    C    0.54040   0.47359   0.33630   1.000
    C193    C    0.12442   0.47308   0.31090   1.000
    C194    C    0.62443   0.47308   0.31095   1.000
    C195    C    0.13079   0.34372   0.26197   1.000
    F196    F    0.62990   0.77038   0.69830   1.000
    F197    F    0.09980   0.81562   0.81270   1.000
    F198    F    0.59982   0.81562   0.81270   1.000
    F199    F    0.02217   0.84573   0.74679   1.000
    F200    F    0.52218   0.84573   0.74679   1.000
    F201    F    0.29654   0.30168   0.07205   1.000
    F202    F    0.79655   0.30168   0.07205   1.000
    F203    F    0.26648   0.18721   0.00282   1.000
    C204    C    0.93650   0.25340   0.21015   1.000
    C205    C    0.33310   0.67710   0.45915   1.000
    C206    C    0.83311   0.67710   0.45915   1.000
    C207    C    0.33110   0.72646   0.59240   1.000
    C208    C    0.83111   0.72646   0.59240   1.000
    C209    C    0.49760   0.67529   0.59020   1.000
    C210    C    0.99761   0.67529   0.59020   1.000
    C211    C    0.45960   0.66367   0.52638   1.000
    C212    C    0.95961   0.66367   0.52638   1.000
    C213    C    0.37558   0.68903   0.52692   1.000
    C214    C    0.87559   0.68903   0.52692   1.000
    C215    C    0.36923   0.73801   0.65628   1.000
    C216    C    0.86924   0.73801   0.65628   1.000
    C217    C    0.45291   0.71230   0.65604   1.000
    C218    C    0.95292   0.71230   0.65604   1.000
    C219    C    0.06353   0.78983   0.74656   1.000
    C220    C    0.56354   0.78983   0.74656   1.000
    C221    C    0.49973   0.54082   0.21802   1.000
    C222    C    0.99974   0.54082   0.21802   1.000
    C223    C    0.49771   0.40751   0.13396   1.000
    C224    C    0.99772   0.40751   0.13396   1.000
    C225    C    0.16421   0.40982   0.08506   1.000
    C226    C    0.66422   0.40982   0.08506   1.000
    C227    C    0.12622   0.47362   0.13730   1.000
    C228    C    0.62623   0.47362   0.13730   1.000
    C229    C    0.04219   0.47307   0.16213   1.000
    C230    C    0.54220   0.47307   0.16213   1.000
    C231    C    0.03583   0.34373   0.08160   1.000
    C232    C    0.53584   0.34373   0.08160   1.000
    C233    C    0.11953   0.34397   0.05623   1.000
    C234    C    0.61954   0.34397   0.05623   1.000
    C235    C    0.23018   0.25343   0.04324   1.000
    C236    C    0.73019   0.25343   0.04324   1.000
    C237    C    0.16641   0.78195   0.32287   1.000
    C238    C    0.66642   0.78195   0.32287   1.000
    C239    C    0.16441   0.86602   0.27358   1.000
    C240    C    0.66442   0.86602   0.27358   1.000
    C241    C    0.33086   0.91496   0.32482   1.000
    C242    C    0.83088   0.91496   0.32482   1.000
    C243    C    0.29286   0.86270   0.33639   1.000
    C244    C    0.79288   0.86270   0.33639   1.000
    C245    C    0.20887   0.83786   0.31099   1.000
    C246    C    0.70888   0.83786   0.31099   1.000
    C247    C    0.20255   0.91831   0.26207   1.000
    C248    C    0.70256   0.91831   0.26207   1.000
    C249    C    0.28622   0.94378   0.28770   1.000
    C250    C    0.78623   0.94378   0.28779   1.000
    C251    C    0.39685   0.95675   0.21018   1.000
    C252    C    0.89686   0.95675   0.21018   1.000
    C253    C    0.33315   0.32293   0.54087   1.000
    C254    C    0.83316   0.32293   0.54087   1.000
    C255    C    0.33111   0.27357   0.40755   1.000
    C256    C    0.83112   0.27357   0.40755   1.000
    C257    C    0.87562   0.31100   0.47308   1.000
    C258    C    0.36921   0.26201   0.34373   1.000
    C259    C    0.86923   0.26200   0.34373   1.000
    C260    C    0.45290   0.28770   0.34392   1.000
    C261    C    0.95291   0.28770   0.34392   1.000
    C262    C    0.06352   0.21016   0.25339   1.000
    C263    C    0.56353   0.21016   0.25339   1.000
    C264    C    0.49971   0.45919   0.78196   1.000
    C265    C    0.99972   0.45919   0.78195   1.000
    C266    C    0.49771   0.59250   0.86605   1.000
    C267    C    0.99773   0.59250   0.86605   1.000
    C268    C    0.16417   0.59016   0.91493   1.000
    C269    C    0.66418   0.59016   0.91490   1.000
    C270    C    0.12617   0.52636   0.86269   1.000
    C271    C    0.62618   0.52636   0.86269   1.000
    C272    C    0.04217   0.52693   0.83786   1.000
    C273    C    0.54218   0.52693   0.83787   1.000
    C274    C    0.03584   0.65627   0.91830   1.000
    C275    C    0.53585   0.65627   0.91833   1.000
    C276    C    0.11952   0.65601   0.94378   1.000
    C277    C    0.61953   0.65601   0.94378   1.000
    C278    C    0.23018   0.74655   0.95673   1.000
    C279    C    0.73019   0.74655   0.95673   1.000
    C280    C    0.16638   0.21804   0.67712   1.000
    C281    C    0.66639   0.21804   0.67710   1.000
    C282    C    0.16440   0.13398   0.72644   1.000
    C283    C    0.66441   0.13398   0.72644   1.000
    C284    C    0.33089   0.08511   0.67520   1.000
    C285    C    0.83091   0.08511   0.67520   1.000
    C286    C    0.29288   0.13735   0.66364   1.000
    C287    C    0.79289   0.13735   0.66360   1.000
    C288    C    0.20885   0.16216   0.68902   1.000
    C289    C    0.70887   0.16216   0.68902   1.000
    C290    C    0.20255   0.08171   0.73795   1.000
    C291    C    0.70256   0.08171   0.73795   1.000
    C292    C    0.28624   0.05626   0.71223   1.000
    C293    C    0.78626   0.05626   0.71223   1.000
    C294    C    0.39685   0.04326   0.78979   1.000
    C295    C    0.89687   0.04326   0.78979   1.000
    C296    C    0.33335   0.00002   0.27486   1.000
    C297    C    0.83336   0.00002   0.27486   1.000
    C298    C    0.16666   0.27486   0.00000   1.000
    C299    C    0.66667   0.27486   0.00000   1.000
    C300    C    0.00001   0.72518   0.72516   1.000
    C301    C    0.50002   0.72518   0.72516   1.000
    C302    C    0.33336   0.00002   0.72513   1.000
    C303    C    0.83337   0.00002   0.72513   1.000
    C304    C    0.16666   0.72511   0.00000   1.000
    C305    C    0.66667   0.72511   0.00000   1.000
    C306    C    0.00000   0.27480   0.27478   1.000
    C307    C    0.50000   0.27480   0.27478   1.000
    O308    O    0.45960   0.23793   0.59990   1.000
    O309    O    0.95961   0.23792   0.59994   1.000
    O310    O    0.07352   0.24158   0.53430   1.000
    O311    O    0.57354   0.24158   0.53430   1.000
    O312    O    0.29291   0.36214   0.76204   1.000
    O313    O    0.79292   0.36214   0.76200   1.000
    O314    O    0.40678   0.29278   0.75828   1.000
    O315    O    0.90680   0.29278   0.75828   1.000
    O316    O    0.12621   0.39998   0.63772   1.000
    O317    O    0.62622   0.39998   0.63772   1.000
    O318    O    0.24005   0.46556   0.70712   1.000
    O319    O    0.74006   0.46556   0.70712   1.000
    O320    O    0.45957   0.76209   0.40000   1.000
    O321    O    0.95958   0.76209   0.40000   1.000
    O322    O    0.07343   0.75836   0.46561   1.000
    O323    O    0.57344   0.75836   0.46561   1.000
    O324    O    0.29294   0.63789   0.23794   1.000
    O325    O    0.79295   0.63789   0.23794   1.000
    O326    O    0.40684   0.70721   0.24162   1.000
    O327    O    0.90685   0.70720   0.24160   1.000
    O328    O    0.12620   0.60001   0.36224   1.000
    O329    O    0.62621   0.60001   0.36224   1.000
    O330    O    0.24009   0.53445   0.29285   1.000
    O331    O    0.74010   0.53445   0.29285   1.000
    O332    O    0.37379   0.63778   0.40000   1.000
    O333    O    0.87380   0.63778   0.40000   1.000
    O334    O    0.25990   0.70714   0.46560   1.000
    O335    O    0.75991   0.70714   0.46560   1.000
    O336    O    0.04043   0.59998   0.23791   1.000
    O337    O    0.54044   0.59998   0.23791   1.000
    O338    O    0.42653   0.53436   0.24163   1.000
    O339    O    0.92654   0.53436   0.24163   1.000
    O340    O    0.20710   0.76209   0.36210   1.000
    O341    O    0.70711   0.76209   0.36217   1.000
    O342    O    0.09324   0.75831   0.29200   1.000
    O343    O    0.59326   0.75831   0.29280   1.000
    O344    O    0.37382   0.36228   0.60000   1.000
    O345    O    0.87383   0.36228   0.60000   1.000
    O346    O    0.25998   0.29285   0.53445   1.000
    O347    O    0.75999   0.29285   0.53445   1.000
    O348    O    0.04040   0.40003   0.76203   1.000
    O349    O    0.54042   0.40003   0.76202   1.000
    O350    O    0.42652   0.46567   0.75838   1.000
    O351    O    0.92653   0.46567   0.75838   1.000
    O352    O    0.20709   0.23791   0.63783   1.000
    O353    O    0.70710   0.23791   0.63783   1.000
    O354    O    0.09318   0.24164   0.70718   1.000
    O355    O    0.59319   0.24164   0.70710   1.000
    F356    F    0.20346   0.07207   0.30168   1.000
    F357    F    0.70348   0.07207   0.30168   1.000
    F358    F    0.23354   0.00283   0.18721   1.000
    F359    F    0.73355   0.00283   0.18721   1.000
    F360    F    0.31117   0.09893   0.25318   1.000
    F361    F    0.81118   0.09893   0.25318   1.000
    F362    F    0.03680   0.22963   0.92793   1.000
    F363    F    0.53681   0.22963   0.92793   1.000
    F364    F    0.06686   0.18438   0.99718   1.000
    F365    F    0.56687   0.18438   0.99718   1.000
    F366    F    0.14452   0.15431   0.90108   1.000
    F367    F    0.64453   0.15431   0.90108   1.000
    F368    F    0.37013   0.69832   0.77038   1.000
    F369    F    0.87014   0.69832   0.77038   1.000
    F370    F    0.40020   0.81281   0.81562   1.000
    F371    F    0.90021   0.81281   0.81562   1.000
    F372    F    0.47783   0.74680   0.84570   1.000
    F373    F    0.97784   0.74680   0.84570   1.000
    F374    F    0.20347   0.92793   0.69831   1.000
    F375    F    0.70348   0.92793   0.69831   1.000
    F376    F    0.23353   0.99717   0.81278   1.000
    F377    F    0.73354   0.99717   0.81278   1.000
    F378    F    0.31117   0.90108   0.74679   1.000
    F379    F    0.81118   0.90108   0.74670   1.000
    F380    F    0.03678   0.77036   0.07200   1.000
    F381    F    0.53680   0.77036   0.07200   1.000
    F382    F    0.06686   0.81560   0.00280   1.000
    F383    F    0.56688   0.81560   0.00280   1.000
    F384    F    0.14450   0.84568   0.09889   1.000
    F385    F    0.64451   0.84568   0.09889   1.000
    F386    F    0.37013   0.30166   0.22960   1.000
    F387    F    0.87014   0.30166   0.22960   1.000
    F388    F    0.40020   0.18717   0.18436   1.000
    F389    F    0.90021   0.18717   0.18436   1.000
    F390    F    0.47785   0.25318   0.15425   1.000
    F391    F    0.97786   0.25318   0.15425   1.000
    F392    F    0.12989   0.77038   0.69830   1.000
    F393    F    0.76649   0.18721   0.00282   1.000
    F394    F    0.18884   0.25320   0.09892   1.000
    F395    F    0.68886   0.25320   0.09892   1.000
    F396    F    0.46322   0.92793   0.22961   1.000
    F397    F    0.96323   0.92793   0.22961   1.000
    F398    F    0.43315   0.99718   0.18436   1.000
    F399    F    0.93316   0.99718   0.18436   1.000
    F400    F    0.35551   0.90109   0.15430   1.000
    F401    F    0.85552   0.90109   0.15430   1.000
    F402    F    0.12987   0.22960   0.30165   1.000
    F403    F    0.62988   0.22960   0.30165   1.000
    F404    F    0.09981   0.18435   0.18716   1.000
    F405    F    0.59982   0.18435   0.18716   1.000
    F406    F    0.02218   0.15426   0.25318   1.000
    F407    F    0.52219   0.15426   0.25318   1.000
    F408    F    0.29655   0.69831   0.92791   1.000
    F409    F    0.79656   0.69831   0.92791   1.000
    F410    F    0.26648   0.81278   0.99715   1.000
    F411    F    0.76649   0.81278   0.99715   1.000
    F412    F    0.18884   0.74679   0.90107   1.000
    F413    F    0.68885   0.74679   0.90107   1.000
    F414    F    0.46323   0.07208   0.77035   1.000
    F415    F    0.96324   0.07208   0.77035   1.000
    F416    F    0.43315   0.00282   0.81559   1.000
    F417    F    0.93316   0.00282   0.81559   1.000
    F418    F    0.35551   0.09891   0.84568   1.000
    F419    F    0.85552   0.09891   0.84568   1.000
loop_
    _geom_bond_atom_site_label_1
    _geom_bond_atom_site_label_2
    _geom_bond_distance
    _geom_bond_site_symmetry_2
    _ccdc_geom_bond_type
    F383   C184      1.35938      .   S
    F382   C183      1.35938      .   S
    F393   C236      1.35980      .   S
    F203   C235      1.35980      .   S
    C184   F381      1.36275      .   S
    C184   F385      1.35524      .   S
    C184   C305      1.56633      .   S
    C183   F380      1.36276      .   S
    C183   F384      1.35523      .   S
    C183   C304      1.56633      .   S
    C235   F201      1.36320      .   S
    C235   F394      1.35484      .   S
    C235   C298      1.56663      .   S
    C236   F202      1.36321      .   S
    C236   F395      1.35483      .   S
    C236   C299      1.56662      .   S
    C182   C180      1.40153      .   S
    C182   C174      1.40605      .   S
    C182   C305      1.54550      .   S
    C233   C231      1.40068      .   S
    C233   C225      1.40561      .   S
    C233   C298      1.54579      .   S
    C234   C232      1.40068      .   S
    C234   C226      1.40561      .   S
    C234   C299      1.54579      .   S
    C181   C179      1.40142      .   S
    C181   C173      1.40440      .   S
    C181   C304      1.54603      .   S
    H39    C180      1.08530      .   S
    H38    C179      1.08530      .   S
    H63    C232      1.08538      .   S
    H62    C231      1.08539  1_655   S
    H58    C225      1.08879      .   S
    H59    C226      1.08879      .   S
    H34    C173      1.08857      .   S
    H35    C174      1.08876      .   S
    C231   C224      1.39269  1_455   S
    C232   C223      1.39283      .   S
    C180   C172      1.39232      .   S
    C179   C171      1.39212      .   S
    C173   C175      1.39245      .   S
    C226   C228      1.39140      .   S
    C225   C227      1.39140      .   S
    C174   C176      1.39151      .   S
    C171   H32       1.08828      .   S
    C171   C177      1.40045      .   S
    C172   H33       1.08824      .   S
    C172   C178      1.40025      .   S
    C223   H56       1.08829      .   S
    C223   C230      1.40032      .   S
    C224   H57       1.08828      .   S
    C224   C229      1.40016  1_655   S
    C227   H60       1.08831      .   S
    C227   C229      1.40216      .   S
    C228   H61       1.08831      .   S
    C228   C230      1.40216      .   S
    C175   H36       1.08878      .   S
    C175   C177      1.40221      .   S
    C176   H37       1.08832      .   S
    C176   C178      1.40209      .   S
    F391   C204      1.35489      .   S
    F390   C91       1.35489      .   S
    F400   C251      1.35483      .   S
    F401   C252      1.35483      .   S
    C230   C221      1.49440      .   S
    C229   C222      1.49426  1_455   S
    C178   C170      1.49462      .   S
    C177   C169      1.49441      .   S
    F389   C204      1.35977      .   S
    F399   C252      1.35982      .   S
    F398   C251      1.35982      .   S
    F388   C91       1.35979      .   S
    F405   C263      1.35969      .   S
    F404   C262      1.35969      .   S
    F358   C114      1.35984      .   S
    F359   C115      1.35984      .   S
    C91    F386      1.36322      .   S
    C91    C307      1.56617      .   S
    C204   F387      1.36322      .   S
    C204   C306      1.56606  1_655   S
    C251   F396      1.36322      .   S
    C251   C296      1.56653  1_565   S
    C252   F397      1.36324      .   S
    C252   C297      1.56653  1_565   S
    C222   O336      1.28144  1_655   S
    C222   O339      1.27167      .   S
    C221   O337      1.28162      .   S
    C221   O338      1.27167      .   S
    C169   O324      1.28164      .   S
    C169   O326      1.27169      .   S
    C170   O325      1.28156      .   S
    C170   O327      1.27161      .   S
    H46    C195      1.08519      .   S
    H47    C88       1.08519      .   S
    H70    C247      1.08515      .   S
    H71    C248      1.08514      .   S
    H40    C187      1.08829      .   S
    H41    C188      1.08827      .   S
    H65    C240      1.08826      .   S
    H64    C239      1.08826      .   S
    F360   C114      1.35491      .   S
    F407   C263      1.35492      .   S
    F361   C115      1.35491      .   S
    F406   C262      1.35488      .   S
    C263   C307      1.56631      .   S
    C263   F403      1.36335      .   S
    C262   C306      1.56622      .   S
    C262   F402      1.36333      .   S
    C114   C296      1.56653      .   S
    C114   F356      1.36308      .   S
    C115   C297      1.56653      .   S
    C115   F357      1.36307      .   S
    C88    C188      1.39227      .   S
    C88    C90       1.40137      .   S
    C195   C187      1.39224      .   S
    C195   C89       1.40138      .   S
    C247   C239      1.39227      .   S
    C247   C249      1.40106      .   S
    C248   C240      1.39227      .   S
    C248   C250      1.40144      .   S
    C188   C194      1.40028      .   S
    C187   C193      1.40021      .   S
    C240   C246      1.40036      .   S
    C239   C245      1.40036      .   S
    C307   C90       1.54575      .   S
    C307   C260      1.54576      .   S
    C306   C89       1.54569      .   S
    C306   C261      1.54564  1_455   S
    C297   C250      1.54612  1_545   S
    C297   C113      1.54577      .   S
    C296   C249      1.54502  1_545   S
    C296   C112      1.54576      .   S
    C90    C190      1.40552      .   S
    C89    C189      1.40553      .   S
    C249   C241      1.40698      .   S
    C250   C242      1.40547      .   S
    O342   C237      1.27699      .   S
    O343   C238      1.27160      .   S
    O331   C186      1.27165      .   S
    O330   C185      1.27164      .   S
    H6     C110      1.08521      .   S
    H7     C111      1.07882  1_455   S
    H78    C258      1.08528      .   S
    H79    C259      1.08528      .   S
    C193   C185      1.49401      .   S
    C193   C191      1.40250      .   S
    C194   C186      1.49435      .   S
    C194   C192      1.40207      .   S
    C246   C238      1.49447      .   S
    C246   C244      1.40209      .   S
    C245   C237      1.49447      .   S
    C245   C243      1.40210      .   S
    C237   O340      1.28048      .   S
    C238   O341      1.28169      .   S
    C185   O328      1.28159      .   S
    C186   O329      1.28159      .   S
    C190   C192      1.39143      .   S
    C190   H42       1.08874      .   S
    C189   C191      1.39141      .   S
    C189   H43       1.08842  1_455   S
    C241   C243      1.39154      .   S
    C241   H66       1.08879      .   S
    C242   C244      1.39154      .   S
    C242   H67       1.08877      .   S
    C192   H45       1.08830      .   S
    C191   H44       1.08830      .   S
    C243   H68       1.08822      .   S
    C244   H69       1.08821      .   S
    C110   C112      1.40144      .   S
    C110   C103      1.39223      .   S
    C111   C113      1.40143      .   S
    C111   C102      1.39208  1_655   S
    C258   C260      1.40141      .   S
    C258   C255      1.39218      .   S
    C259   C261      1.40142      .   S
    C259   C256      1.39218      .   S
    C261   C121      1.40555      .   S
    C260   C120      1.40554      .   S
    C113   C105      1.40559      .   S
    C112   C104      1.40558      .   S
    O333   C206      1.28160      .   S
    O320   C154      1.28162      .   S
    O321   C153      1.28144  1_655   S
    O332   C205      1.28160      .   S
    H1     C103      1.08828      .   S
    H0     C102      1.08827      .   S
    H73    C256      1.08830      .   S
    H72    C255      1.08830      .   S
    C102   C109      1.40019  1_455   S
    C103   C108      1.40035      .   S
    C256   C257      1.40029      .   S
    C255   C124      1.40028      .   S
    C121   H74       1.08844  1_655   S
    C121   C123      1.39145      .   S
    C120   H75       1.08877      .   S
    C120   C122      1.38992      .   S
    C104   H2        1.08876      .   S
    C104   C106      1.39147      .   S
    C105   H3        1.08876      .   S
    C105   C107      1.39146      .   S
    C154   O323      1.27167      .   S
    C154   C161      1.49438      .   S
    C153   O322      1.27167      .   S
    C153   C162      1.49422  1_455   S
    C206   O335      1.27167      .   S
    C206   C214      1.49437      .   S
    C205   O334      1.27167      .   S
    C205   C213      1.49437      .   S
    C109   C107      1.40215      .   S
    C109   C100      1.49340  1_655   S
    C108   C106      1.40215      .   S
    C108   C101      1.49442      .   S
    C257   C123      1.40207      .   S
    C257   C254      1.49429      .   S
    C124   C122      1.40239      .   S
    C124   C253      1.49430      .   S
    C122   H76       1.08949      .   S
    C123   H77       1.08826      .   S
    C106   H4        1.08824      .   S
    C107   H5        1.08824      .   S
    H28    C159      1.08832      .   S
    H29    C160      1.08832      .   S
    H52    C211      1.08824      .   S
    H53    C212      1.08823      .   S
    C160   C162      1.40210      .   S
    C160   C158      1.39140      .   S
    C159   C161      1.40210      .   S
    C159   C157      1.39140      .   S
    C211   C213      1.40212      .   S
    C211   C209      1.39140      .   S
    C212   C214      1.40212      .   S
    C212   C210      1.39139      .   S
    C161   C156      1.40036      .   S
    C162   C155      1.40020  1_655   S
    C213   C207      1.39905      .   S
    C214   C208      1.39905      .   S
    O310   C100      1.27122      .   S
    O311   C101      1.27168      .   S
    O347   C254      1.27165      .   S
    O346   C253      1.27164      .   S
    C100   O309      1.28283  1_455   S
    C101   O308      1.28106      .   S
    C253   O344      1.28155      .   S
    C254   O345      1.28154      .   S
    H26    C157      1.08876      .   S
    H27    C158      1.08876      .   S
    H50    C210      1.08844  1_455   S
    H51    C209      1.08876      .   S
    C157   C165      1.40556      .   S
    C158   C166      1.40557      .   S
    C209   C217      1.40558      .   S
    C210   C218      1.40558      .   S
    C207   H48       1.08794      .   S
    C207   C215      1.39385      .   S
    C208   H49       1.08794      .   S
    C208   C216      1.39385      .   S
    C155   H24       1.08830      .   S
    C155   C164      1.39212  1_455   S
    C156   H25       1.08830      .   S
    C156   C163      1.39227      .   S
    H21    C144      1.08831      .   S
    H20    C143      1.08830      .   S
    H96    C286      1.08839      .   S
    H97    C287      1.08771      .   S
    O316   C137      1.28160      .   S
    O317   C138      1.28160      .   S
    O352   C280      1.28160      .   S
    O353   C281      1.28119      .   S
    H94    C284      1.08877      .   S
    H95    C285      1.08877      .   S
    H18    C142      1.08855      .   S
    H19    C141      1.08839  1_655   S
    C165   C163      1.40143      .   S
    C165   C302      1.54588  1_565   S
    C166   C164      1.40143      .   S
    C166   C303      1.54588  1_565   S
    C217   C215      1.40140      .   S
    C217   C301      1.54588      .   S
    C218   C216      1.40141      .   S
    C218   C300      1.54570  1_655   S
    C163   H30       1.08528      .   S
    C164   H31       1.07899  1_655   S
    C215   H54       1.08523      .   S
    C216   H55       1.08523      .   S
    C287   C285      1.39190      .   S
    C287   C289      1.40223      .   S
    C144   C142      1.39157      .   S
    C144   C146      1.40206      .   S
    C143   C141      1.39146      .   S
    C143   C145      1.40206      .   S
    C286   C284      1.39139      .   S
    C286   C288      1.40208      .   S
    C142   C150      1.40557      .   S
    C284   C292      1.40562      .   S
    C285   C293      1.40565      .   S
    C141   C149      1.40555      .   S
    C138   C146      1.49442      .   S
    C138   O319      1.27167      .   S
    C137   C145      1.49442      .   S
    C137   O318      1.27168      .   S
    C281   C289      1.49477      .   S
    C281   O355      1.27134      .   S
    C280   C288      1.49453      .   S
    C280   O354      1.27171      .   S
    C145   C139      1.40031      .   S
    C146   C140      1.40031      .   S
    C288   C282      1.40039      .   S
    C289   C283      1.40041      .   S
    F196   C220      1.36313      .   S
    F392   C219      1.36312      .   S
    F375   C168      1.36319      .   S
    F374   C167      1.36319      .   S
    C292   C302      1.54594      .   S
    C292   C290      1.40140      .   S
    C293   C303      1.54592      .   S
    C293   C291      1.40139      .   S
    C149   C300      1.54577      .   S
    C149   C147      1.40136      .   S
    C150   C301      1.54576      .   S
    C150   C148      1.40136      .   S
    C302   C167      1.56669  1_545   S
    C302   C294      1.56639      .   S
    C303   C168      1.56669  1_545   S
    C303   C295      1.56640      .   S
    C301   C220      1.56628      .   S
    C301   C151      1.56625      .   S
    C300   C219      1.56629      .   S
    C300   C152      1.56602  1_455   S
    C140   C148      1.39226      .   S
    C140   H17       1.08828      .   S
    C139   C147      1.39228      .   S
    C139   H16       1.08828      .   S
    C282   C290      1.39231      .   S
    C282   H92       1.08786      .   S
    C283   C291      1.39229      .   S
    C283   H93       1.08787      .   S
    C147   H22       1.08521      .   S
    C148   H23       1.08521      .   S
    C291   H99       1.08511      .   S
    C290   H98       1.08513      .   S
    C167   F378      1.35494      .   S
    C167   F376      1.35980      .   S
    C168   F379      1.35408      .   S
    C168   F377      1.35980      .   S
    C219   F199      1.35491      .   S
    C219   F197      1.35827      .   S
    C220   F200      1.35491      .   S
    C220   F198      1.35827      .   S
    O315   C117      1.27163      .   S
    O314   C116      1.27159      .   S
    O350   C264      1.27173      .   S
    O351   C265      1.27167      .   S
    O313   C117      1.28219      .   S
    O349   C264      1.28158      .   S
    O348   C265      1.28147  1_455   S
    O312   C116      1.28143      .   S
    F414   C294      1.36320      .   S
    F415   C295      1.36319      .   S
    F368   C151      1.36319      .   S
    F369   C152      1.36321      .   S
    C116   C129      1.49470      .   S
    C117   C130      1.49453      .   S
    C265   C272      1.49438  1_655   S
    C264   C273      1.49452      .   S
    C295   F417      1.35984      .   S
    C295   F419      1.35478      .   S
    C294   F416      1.35985      .   S
    C294   F418      1.35478      .   S
    C151   F370      1.35978      .   S
    C151   F372      1.35482      .   S
    C152   F371      1.35978      .   S
    C152   F373      1.35482      .   S
    C129   C127      1.40209      .   S
    C129   C118      1.40030      .   S
    C130   C128      1.40207      .   S
    C130   C119      1.40026      .   S
    C272   C270      1.40215      .   S
    C272   C267      1.40015  1_455   S
    C273   C271      1.40211      .   S
    C273   C266      1.40033      .   S
    H12    C127      1.08826      .   S
    H13    C128      1.08828      .   S
    H85    C271      1.08828      .   S
    H84    C270      1.08830      .   S
    H8     C118      1.08859      .   S
    H9     C119      1.08827      .   S
    H81    C267      1.08876      .   S
    H80    C266      1.08825      .   S
    C128   C126      1.39154      .   S
    C127   C125      1.39154      .   S
    C271   C269      1.39122      .   S
    C270   C268      1.39143      .   S
    C118   C131      1.39235      .   S
    C119   C132      1.39237      .   S
    C267   C274      1.39196  1_655   S
    C266   C275      1.39230      .   S
    F413   C279      1.35488      .   S
    F412   C278      1.35488      .   S
    F366   C135      1.35482      .   S
    F367   C136      1.35481      .   S
    C269   H83       1.08340      .   S
    C269   C277      1.40554      .   S
    C126   H11       1.08873      .   S
    C126   C134      1.40558      .   S
    C125   H10       1.08875      .   S
    C125   C133      1.40562      .   S
    C268   H82       1.08876      .   S
    C268   C276      1.40559      .   S
    C131   H14       1.08411      .   S
    C131   C133      1.40140      .   S
    C132   H15       1.08514      .   S
    C132   C134      1.40139      .   S
    C274   H86       1.08515  1_455   S
    C274   C276      1.40164      .   S
    C275   H87       1.08521      .   S
    C275   C277      1.40140      .   S
    F408   C278      1.36313      .   S
    F409   C279      1.36313      .   S
    F362   C135      1.36324      .   S
    F363   C136      1.36323      .   S
    C133   C298      1.54613  1_556   S
    C134   C299      1.54615  1_556   S
    C276   C304      1.54584  1_556   S
    C277   C305      1.54583  1_556   S
    C278   F410      1.35987      .   S
    C278   C304      1.56685  1_556   S
    C279   F411      1.35985      .   S
    C279   C305      1.56685  1_556   S
    C135   F364      1.35991      .   S
    C135   C298      1.56643  1_556   S
    C136   F365      1.35990      .   S
    C136   C299      1.56645  1_556   S
