# CIF file generated by openbabel 2.4.90, see http://openbabel.sf.net
data_I
_chemical_name_common ''
_cell_length_a 15.41
_cell_length_b 21.433
_cell_length_c 21.434
_cell_angle_alpha 119.984
_cell_angle_beta 89.984
_cell_angle_gamma 90.008
_space_group_name_H-M_alt 'P 1'
_space_group_name_Hall 'P 1'
loop_
    _symmetry_equiv_pos_as_xyz
    x,y,z
loop_
    _atom_site_label
    _atom_site_type_symbol
    _atom_site_fract_x
    _atom_site_fract_y
    _atom_site_fract_z
    _atom_site_occupancy
    N0      N    0.33335   0.00000   0.33654   1.000
    N1      N    0.66668   0.66341   0.99997   1.000
    N2      N    0.33334   0.00001   0.66341   1.000
    N3      N    0.83333   0.00001   0.66340   1.000
    N4      N    0.66668   0.33658   0.99998   1.000
    N5      N    0.00001   0.66343   0.66340   1.000
    N6      N    0.50001   0.66343   0.66340   1.000
    N7      N    0.16667   0.33658   0.99998   1.000
    N8      N    0.83334   0.00000   0.33657   1.000
    N9      N    0.00001   0.33657   0.33655   1.000
    N10     N    0.50001   0.33657   0.33655   1.000
    N11     N    0.16667   0.66341   0.99999   1.000
    Zr12    Zr   0.00001   0.30083   0.69910   1.000
    O13     O    0.95329   0.21776   0.59607   1.000
    O14     O    0.90502   0.30876   0.78172   1.000
    O15     O    0.09499   0.21823   0.69119   1.000
    O16     O    0.04672   0.40388   0.78219   1.000
    Zr17    Zr   0.16667   0.69916   0.39845   1.000
    O18     O    0.26166   0.69123   0.47308   1.000
    O19     O    0.11995   0.59612   0.37845   1.000
    O20     O    0.07168   0.78178   0.47308   1.000
    O21     O    0.21339   0.78224   0.37843   1.000
    Zr22    Zr   0.16666   0.30082   0.60155   1.000
    O23     O    0.11994   0.40387   0.62153   1.000
    O24     O    0.07169   0.21821   0.52690   1.000
    O25     O    0.21338   0.21776   0.62155   1.000
    O26     O    0.26166   0.30876   0.52691   1.000
    Zr27    Zr   0.33335   0.60160   0.30085   1.000
    O28     O    0.38007   0.62158   0.40388   1.000
    O29     O    0.42833   0.52694   0.21823   1.000
    O30     O    0.23836   0.52695   0.30877   1.000
    O31     O    0.28663   0.62159   0.21777   1.000
    Zr32    Zr   0.83336   0.60160   0.30085   1.000
    O33     O    0.92834   0.52694   0.21823   1.000
    O34     O    0.73837   0.52695   0.30877   1.000
    O35     O    0.78664   0.62159   0.21777   1.000
    O36     O    0.88008   0.62158   0.40388   1.000
    Zr37    Zr   0.99999   0.69915   0.30082   1.000
    O38     O    0.04672   0.59611   0.21775   1.000
    O39     O    0.09499   0.78176   0.30865   1.000
    O40     O    0.90502   0.69122   0.21821   1.000
    O41     O    0.95328   0.78224   0.40386   1.000
    Zr42    Zr   0.33335   0.39845   0.69915   1.000
    O43     O    0.23835   0.47308   0.69121   1.000
    O44     O    0.42833   0.47309   0.78176   1.000
    O45     O    0.38007   0.37846   0.59611   1.000
    O46     O    0.28662   0.37845   0.78222   1.000
    Zr47    Zr   0.83336   0.39845   0.69915   1.000
    O48     O    0.73836   0.47309   0.69121   1.000
    O49     O    0.78663   0.37845   0.78221   1.000
    O50     O    0.88008   0.37846   0.59611   1.000
    O51     O    0.92833   0.47310   0.78176   1.000
    Zr52    Zr   0.66668   0.69916   0.39845   1.000
    O53     O    0.76167   0.69123   0.47308   1.000
    O54     O    0.71340   0.78224   0.37844   1.000
    O55     O    0.61995   0.59612   0.37845   1.000
    O56     O    0.57169   0.78178   0.47308   1.000
    Zr57    Zr   0.50000   0.69915   0.30082   1.000
    O58     O    0.40502   0.69122   0.21821   1.000
    O59     O    0.59499   0.78176   0.30875   1.000
    O60     O    0.54673   0.59611   0.21775   1.000
    O61     O    0.45328   0.78223   0.40386   1.000
    Zr62    Zr   0.50002   0.30083   0.69910   1.000
    O63     O    0.45330   0.21776   0.59606   1.000
    O64     O    0.54673   0.40388   0.78218   1.000
    O65     O    0.59499   0.21823   0.69117   1.000
    O66     O    0.40503   0.30876   0.78172   1.000
    Zr67    Zr   0.66667   0.30082   0.60155   1.000
    O68     O    0.57170   0.21821   0.52689   1.000
    O69     O    0.61995   0.40387   0.62153   1.000
    O70     O    0.76167   0.30876   0.52691   1.000
    O71     O    0.71339   0.21776   0.62155   1.000
loop_
    _geom_bond_atom_site_label_1
    _geom_bond_atom_site_label_2
    _geom_bond_distance
    _geom_bond_site_symmetry_2
    _ccdc_geom_bond_type
    Zr12   O13       2.15303  1_455   S
    N8     O13       5.49491      .   S
    Zr12   O14       2.23716  1_455   S
    N4     O14       5.73888      .   S
    Zr12   O15       2.23739      .   S
    N2     O15       5.73936      .   S
    Zr12   O16       2.15325      .   S
    N11    O16       5.49536      .   S
    Zr17   O18       2.23693      .   S
    N6     O18       5.73804      .   S
    Zr17   O19       2.15247      .   S
    N9     O19       5.49305      .   S
    Zr17   O20       2.23721      .   S
    N3     O20       5.73890  1_645   S
    Zr17   O21       2.15316      .   S
    N0     O21       5.49473  1_545   S
    Zr22   O23       2.15273      .   S
    N5     O23       5.49377      .   S
    Zr22   O24       2.23743      .   S
    N8     O24       5.73935  1_655   S
    Zr22   O25       2.15295      .   S
    N2     O25       5.49456      .   S
    Zr22   O26       2.23658      .   S
    N10    O26       5.73724      .   S
    Zr27   O28       2.15273      .   S
    N6     O28       5.49375      .   S
    Zr27   O29       2.23733      .   S
    N4     O29       5.73915  1_556   S
    Zr27   O30       2.23666      .   S
    N9     O30       5.73736      .   S
    Zr27   O31       2.15320      .   S
    N11    O31       5.49532  1_556   S
    Zr32   O33       2.23728      .   S
    N7     O33       5.73901  1_456   S
    Zr32   O34       2.23668      .   S
    N10    O34       5.73744      .   S
    Zr32   O35       2.15328      .   S
    N1     O35       5.49557  1_556   S
    Zr32   O36       2.15272      .   S
    N5     O36       5.49370  1_455   S
    Zr37   O38       2.15302  1_655   S
    N7     O38       5.49475  1_556   S
    Zr37   O39       2.23794  1_655   S
    N0     O39       5.73849  1_545   S
    Zr37   O40       2.23762      .   S
    N1     O40       5.74002  1_556   S
    Zr37   O41       2.15305      .   S
    N3     O41       5.49481  1_545   S
    Zr42   O43       2.23688      .   S
    N5     O43       5.73798      .   S
    Zr42   O44       2.23746      .   S
    N1     O44       5.73948      .   S
    Zr42   O45       2.15254      .   S
    N10    O45       5.49320      .   S
    Zr42   O46       2.15284      .   S
    N7     O46       5.49434      .   S
    Zr47   O48       2.23690      .   S
    N6     O48       5.73805      .   S
    Zr47   O49       2.15276      .   S
    N4     O49       5.49451      .   S
    Zr47   O50       2.15252      .   S
    N9     O50       5.49314  1_455   S
    Zr47   O51       2.23744      .   S
    N11    O51       5.73944  1_455   S
    Zr52   O53       2.23691      .   S
    N5     O53       5.73796  1_455   S
    Zr52   O54       2.15293      .   S
    N8     O54       5.49449  1_545   S
    Zr52   O55       2.15248      .   S
    N10    O55       5.49309      .   S
    Zr52   O56       2.23721      .   S
    N2     O56       5.73891  1_545   S
    Zr57   O58       2.23760      .   S
    N11    O58       5.73999  1_556   S
    Zr57   O59       2.23714      .   S
    N8     O59       5.73882  1_545   S
    Zr57   O60       2.15301      .   S
    N4     O60       5.49473  1_556   S
    Zr57   O61       2.15308      .   S
    N2     O61       5.49485  1_545   S
    Zr62   O63       2.15320      .   S
    N0     O63       5.49507      .   S
    Zr62   O64       2.15322      .   S
    N1     O64       5.49528      .   S
    Zr62   O65       2.23725      .   S
    N3     O65       5.73921      .   S
    Zr62   O66       2.23722      .   S
    N7     O66       5.73895      .   S
    Zr67   O68       2.23747      .   S
    N0     O68       5.73946      .   S
    Zr67   O69       2.15275      .   S
    N6     O69       5.49381      .   S
    Zr67   O70       2.23655      .   S
    N9     O70       5.73715  1_455   S
    Zr67   O71       2.15290      .   S
    N3     O71       5.49440      .   S
