# CIF file generated by openbabel 2.4.90, see http://openbabel.sf.net
data_I
_chemical_name_common ''
_cell_length_a 17.233
_cell_length_b 17.256
_cell_length_c 17.407
_cell_angle_alpha 86.76
_cell_angle_beta 86.935
_cell_angle_gamma 89.302
_space_group_name_H-M_alt 'P 1'
_space_group_name_Hall 'P 1'
loop_
    _symmetry_equiv_pos_as_xyz
    x,y,z
loop_
    _atom_site_label
    _atom_site_type_symbol
    _atom_site_fract_x
    _atom_site_fract_y
    _atom_site_fract_z
    _atom_site_occupancy
    H0      H    0.84296   0.17442   0.61913   1.000
    H1      H    0.69906   0.16548   0.61715   1.000
    H2      H    0.69143   0.05997   0.84788   1.000
    H3      H    0.83553   0.06611   0.84767   1.000
    H4      H    0.59354   0.07331   0.61829   1.000
    H5      H    0.44925   0.08172   0.61761   1.000
    H6      H    0.43972   0.16616   0.84530   1.000
    H7      H    0.58371   0.15547   0.84788   1.000
    H8      H    0.17893   0.03564   0.28449   1.000
    H9      H    0.18872   0.03806   0.42626   1.000
    H10     H    0.17010   0.84773   0.60827   1.000
    H11     H    0.16286   0.70357   0.60536   1.000
    H12     H    0.09863   0.68902   0.84834   1.000
    H13     H    0.10174   0.83316   0.84955   1.000
    H14     H    0.06526   0.59601   0.62526   1.000
    H15     H    0.06834   0.45142   0.62607   1.000
    H16     H    0.20547   0.44184   0.82527   1.000
    H17     H    0.19933   0.58614   0.82762   1.000
    H18     H    0.06261   0.25831   0.28274   1.000
    H19     H    0.07081   0.25890   0.42513   1.000
    H20     H    0.83070   0.15905   0.38271   1.000
    H21     H    0.83808   0.30295   0.38356   1.000
    H22     H    0.93667   0.31111   0.15038   1.000
    H23     H    0.93186   0.16706   0.15151   1.000
    H24     H    0.92932   0.40845   0.37979   1.000
    H25     H    0.92094   0.55252   0.38032   1.000
    H26     H    0.83014   0.56217   0.15498   1.000
    H27     H    0.84098   0.41836   0.15243   1.000
    H28     H    0.96811   0.81955   0.71643   1.000
    H29     H    0.96556   0.80977   0.57459   1.000
    H30     H    0.15382   0.83344   0.39191   1.000
    H31     H    0.29810   0.84193   0.39513   1.000
    H32     H    0.31188   0.90733   0.15225   1.000
    H33     H    0.16760   0.90304   0.15078   1.000
    H34     H    0.40549   0.94091   0.37503   1.000
    H35     H    0.55035   0.93860   0.37404   1.000
    H36     H    0.55967   0.80143   0.17546   1.000
    H37     H    0.41516   0.80683   0.17324   1.000
    H38     H    0.74533   0.93604   0.71729   1.000
    H39     H    0.74467   0.92795   0.57491   1.000
    H40     H    0.16573   0.26416   0.02720   1.000
    H41     H    0.15836   0.26661   0.17042   1.000
    H42     H    0.08125   0.02923   0.18680   1.000
    H43     H    0.08443   0.02905   0.04424   1.000
    H44     H    0.73858   0.83343   0.97248   1.000
    H45     H    0.73705   0.83960   0.82914   1.000
    H46     H    0.97402   0.91864   0.81405   1.000
    H47     H    0.97315   0.91691   0.95673   1.000
    C48     C    0.84799   0.12206   0.73390   1.000
    C49     C    0.80918   0.14874   0.66857   1.000
    C50     C    0.72884   0.14329   0.66768   1.000
    C51     C    0.68481   0.11315   0.73278   1.000
    C52     C    0.72437   0.08534   0.79759   1.000
    C53     C    0.80502   0.08870   0.79785   1.000
    C54     C    0.59898   0.11402   0.73310   1.000
    C55     C    0.55999   0.09366   0.66825   1.000
    C56     C    0.47939   0.09816   0.66756   1.000
    C57     C    0.43559   0.12490   0.73119   1.000
    C58     C    0.47392   0.14497   0.79626   1.000
    C59     C    0.55438   0.13857   0.79751   1.000
    C60     C    0.15503   0.08465   0.31513   1.000
    C61     C    0.16086   0.08586   0.39439   1.000
    C62     C    0.13696   0.84899   0.72912   1.000
    C63     C    0.15362   0.81231   0.66022   1.000
    C64     C    0.14937   0.73199   0.65891   1.000
    C65     C    0.13113   0.68640   0.72687   1.000
    C66     C    0.11438   0.72373   0.79566   1.000
    C67     C    0.11600   0.80418   0.79658   1.000
    C68     C    0.13203   0.60089   0.72651   1.000
    C69     C    0.09602   0.56229   0.66917   1.000
    C70     C    0.09757   0.48169   0.66936   1.000
    C71     C    0.13729   0.43808   0.72552   1.000
    C72     C    0.17415   0.47619   0.78236   1.000
    C73     C    0.17037   0.55660   0.78353   1.000
    C74     C    0.14633   0.21344   0.06283   1.000
    C75     C    0.14201   0.21451   0.14277   1.000
    C76     C    0.09988   0.08089   0.15224   1.000
    C77     C    0.10164   0.08049   0.07234   1.000
    C78     C    0.09101   0.21036   0.31402   1.000
    C79     C    0.09509   0.21075   0.39355   1.000
    C80     C    0.12630   0.14628   0.02685   1.000
    C81     C    0.12023   0.14781   0.18873   1.000
    C82     C    0.12131   0.14752   0.27352   1.000
    C83     C    0.13118   0.14908   0.43435   1.000
    C84     C    0.87965   0.15433   0.26675   1.000
    C85     C    0.85450   0.19298   0.33246   1.000
    C86     C    0.85906   0.27330   0.33270   1.000
    C87     C    0.88691   0.31740   0.26668   1.000
    C88     C    0.91308   0.27804   0.20140   1.000
    C89     C    0.91052   0.19744   0.20169   1.000
    C90     C    0.88552   0.40310   0.26611   1.000
    C91     C    0.90762   0.44198   0.33031   1.000
    C92     C    0.90310   0.52245   0.33092   1.000
    C93     C    0.87458   0.56621   0.26792   1.000
    C94     C    0.85268   0.52800   0.20353   1.000
    C95     C    0.85919   0.44765   0.20227   1.000
    C96     C    0.91907   0.84347   0.68555   1.000
    C97     C    0.91777   0.83764   0.60630   1.000
    C98     C    0.15217   0.86717   0.27113   1.000
    C99     C    0.18910   0.85048   0.34007   1.000
    C100    C    0.26948   0.85545   0.34155   1.000
    C101    C    0.31488   0.87439   0.27369   1.000
    C102    C    0.27731   0.89110   0.20486   1.000
    C103    C    0.19678   0.88881   0.20378   1.000
    C104    C    0.40051   0.87412   0.27407   1.000
    C105    C    0.43924   0.91038   0.33117   1.000
    C106    C    0.51999   0.90929   0.33086   1.000
    C107    C    0.56356   0.86974   0.27482   1.000
    C108    C    0.52530   0.83269   0.21819   1.000
    C109    C    0.44478   0.83602   0.21712   1.000
    C110    C    0.78938   0.85300   0.93708   1.000
    C111    C    0.78885   0.85659   0.85713   1.000
    C112    C    0.92228   0.89984   0.84840   1.000
    C113    C    0.92208   0.89890   0.92831   1.000
    C114    C    0.79326   0.90763   0.68618   1.000
    C115    C    0.79281   0.90359   0.60670   1.000
    C116    C    0.85611   0.87409   0.97340   1.000
    C117    C    0.85570   0.87865   0.81159   1.000
    C118    C    0.85619   0.87726   0.72685   1.000
    C119    C    0.85449   0.86746   0.56617   1.000
loop_
    _geom_bond_atom_site_label_1
    _geom_bond_atom_site_label_2
    _geom_bond_distance
    _geom_bond_site_symmetry_2
    _ccdc_geom_bond_type
    C80    C74       1.40331      .   S
    C80    C77       1.40380      .   S
    H40    C74       1.08913      .   S
    H43    C77       1.08921      .   S
    C74    C75       1.39064      .   S
    C77    C76       1.38993      .   S
    C75    H41       1.09054      .   S
    C75    C81       1.40704      .   S
    H22    C88       1.09064      .   S
    H33    C103      1.08878      .   S
    H23    C89       1.08896      .   S
    C76    H42       1.08877      .   S
    C76    C81       1.40585      .   S
    H32    C102      1.09035      .   S
    H27    C95       1.09045      .   S
    H26    C94       1.08912      .   S
    H37    C109      1.09046      .   S
    H36    C108      1.08887      .   S
    C81    C82       1.47686      .   S
    C88    C89       1.39180      .   S
    C88    C87       1.40739      .   S
    C89    C84       1.40310      .   S
    C95    C94       1.39104      .   S
    C95    C90       1.40744      .   S
    C94    C93       1.40292      .   S
    C103   C102      1.38985      .   S
    C103   C98       1.40219      .   S
    C102   C101      1.40618      .   S
    C109   C108      1.38907      .   S
    C109   C104      1.40631      .   S
    C108   C107      1.40218      .   S
    C90    C87       1.47819      .   S
    C90    C91       1.40729      .   S
    C87    C86       1.40754      .   S
    C84    C85       1.40253      .   S
    C93    C92       1.40331      .   S
    C98    C99       1.40210      .   S
    C82    C78       1.40662      .   S
    C82    C60       1.40731      .   S
    C101   C104      1.47602      .   S
    C101   C100      1.40642      .   S
    C104   C105      1.40584      .   S
    C107   C106      1.40206      .   S
    H18    C78       1.09010      .   S
    H8     C60       1.09008      .   S
    C78    C79       1.39038      .   S
    C60    C61       1.38994      .   S
    C91    C92       1.39039      .   S
    C91    H24       1.09064      .   S
    C106   C105      1.39105      .   S
    C106   H35       1.08908      .   S
    C92    H25       1.08892      .   S
    C105   H34       1.09061      .   S
    C85    C86       1.38947      .   S
    C85    H20       1.08886      .   S
    C86    H21       1.09035      .   S
    C99    C100      1.39050      .   S
    C99    H30       1.08927      .   S
    C100   H31       1.09056      .   S
    C79    H19       1.08900      .   S
    C79    C83       1.40341      .   S
    C61    H9        1.08893      .   S
    C61    C83       1.40342      .   S
    C119   C97       1.40327      .   S
    C119   C115      1.40338      .   S
    H29    C97       1.08901      .   S
    H39    C115      1.08887      .   S
    H11    C64       1.09056      .   S
    C97    C96       1.39024      .   S
    C115   C114      1.38962      .   S
    H10    C63       1.08924      .   S
    H1     C50       1.09037      .   S
    H5     C56       1.08899      .   S
    H4     C55       1.09066      .   S
    H0     C49       1.08890      .   S
    H14    C69       1.09060      .   S
    H15    C70       1.08896      .   S
    C64    C63       1.39035      .   S
    C64    C65       1.40652      .   S
    C63    C62       1.40208      .   S
    C56    C55       1.39093      .   S
    C56    C57       1.40335      .   S
    C50    C49       1.38983      .   S
    C50    C51       1.40758      .   S
    C55    C54       1.40746      .   S
    C49    C48       1.40251      .   S
    C69    C70       1.39047      .   S
    C69    C68       1.40580      .   S
    C70    C71       1.40242      .   S
    C96    H28       1.09013      .   S
    C96    C118      1.40711      .   S
    C114   H38       1.09007      .   S
    C114   C118      1.40640      .   S
    C71    C72       1.40194      .   S
    C68    C65       1.47589      .   S
    C68    C73       1.40637      .   S
    C118   C117      1.47622      .   S
    C65    C66       1.40620      .   S
    C62    C67       1.40225      .   S
    C57    C58       1.40313      .   S
    C51    C54       1.47877      .   S
    C51    C52       1.40751      .   S
    C54    C59       1.40752      .   S
    C48    C53       1.40317      .   S
    C72    C73       1.38960      .   S
    C72    H16       1.08898      .   S
    C73    H17       1.09048      .   S
    C66    C67       1.38989      .   S
    C66    H12       1.09034      .   S
    C58    C59       1.39089      .   S
    C58    H6        1.08903      .   S
    C67    H13       1.08882      .   S
    C59    H7        1.09045      .   S
    C52    C53       1.39198      .   S
    C52    H2        1.09068      .   S
    C53    H3        1.08900      .   S
    C117   C112      1.40566      .   S
    C117   C111      1.40690      .   S
    H46    C112      1.08884      .   S
    H45    C111      1.09054      .   S
    C112   C113      1.39004      .   S
    C111   C110      1.39014      .   S
    C113   H47       1.08923      .   S
    C113   C116      1.40363      .   S
    C110   H44       1.08912      .   S
    C110   C116      1.40302      .   S
