# CIF file generated by openbabel 2.4.90, see http://openbabel.sf.net
data_I
_chemical_name_common ''
_cell_length_a 17.233
_cell_length_b 17.256
_cell_length_c 17.407
_cell_angle_alpha 86.76
_cell_angle_beta 86.935
_cell_angle_gamma 89.302
_space_group_name_H-M_alt 'P 1'
_space_group_name_Hall 'P 1'
loop_
    _symmetry_equiv_pos_as_xyz
    x,y,z
loop_
    _atom_site_label
    _atom_site_type_symbol
    _atom_site_fract_x
    _atom_site_fract_y
    _atom_site_fract_z
    _atom_site_occupancy
    Lv0     Lv   0.12409   0.14758   0.23090   1.000
    Lv1     Lv   0.88226   0.36023   0.26692   1.000
    Lv2     Lv   0.64188   0.11791   0.73266   1.000
    Lv3     Lv   0.35776   0.87166   0.27346   1.000
    Lv4     Lv   0.85572   0.87500   0.76946   1.000
    Lv5     Lv   0.13403   0.64361   0.72698   1.000
