# CIF file generated by openbabel 2.4.90, see http://openbabel.sf.net
data_I
_chemical_name_common ''
_cell_length_a 17.233
_cell_length_b 17.256
_cell_length_c 17.407
_cell_angle_alpha 86.76
_cell_angle_beta 86.935
_cell_angle_gamma 89.302
_space_group_name_H-M_alt 'P 1'
_space_group_name_Hall 'P 1'
loop_
    _symmetry_equiv_pos_as_xyz
    x,y,z
loop_
    _atom_site_label
    _atom_site_type_symbol
    _atom_site_fract_x
    _atom_site_fract_y
    _atom_site_fract_z
    _atom_site_occupancy
    Zn0     Zn   0.20669   0.08188   0.65958   1.000
    Zn1     Zn   0.07960   0.07641   0.80329   1.000
    Zn2     Zn   0.20625   0.20639   0.79347   1.000
    Zn3     Zn   0.79312   0.92684   0.33595   1.000
    Zn4     Zn   0.91996   0.79403   0.34002   1.000
    Zn5     Zn   0.92386   0.92340   0.19713   1.000
    Zn6     Zn   0.79395   0.79685   0.20699   1.000
    Zn7     Zn   0.07578   0.20998   0.66603   1.000
    C8      C    0.93393   0.13074   0.73563   1.000
    C9      C    0.34937   0.13297   0.72924   1.000
    C10     C    0.14152   0.93500   0.73079   1.000
    C11     C    0.14014   0.35176   0.72522   1.000
    C12     C    0.13234   0.14418   0.94133   1.000
    C13     C    0.13820   0.15070   0.51918   1.000
    C14     C    0.87175   0.06841   0.26575   1.000
    C15     C    0.86693   0.65231   0.26997   1.000
    C16     C    0.06609   0.86190   0.26927   1.000
    C17     C    0.65001   0.86644   0.27504   1.000
    C18     C    0.85744   0.86901   0.05896   1.000
    C19     C    0.85261   0.86103   0.48134   1.000
    O20     O    0.96760   0.09312   0.79003   1.000
    O21     O    0.96670   0.17578   0.68307   1.000
    O22     O    0.31480   0.16971   0.78322   1.000
    O23     O    0.08963   0.31980   0.68649   1.000
    O24     O    0.09931   0.20288   0.55421   1.000
    O25     O    0.10351   0.96620   0.78632   1.000
    O26     O    0.18294   0.97008   0.67701   1.000
    O27     O    0.19278   0.31721   0.76370   1.000
    O28     O    0.31714   0.10288   0.67364   1.000
    O29     O    0.18301   0.09983   0.55044   1.000
    O30     O    0.14251   0.14353   0.73045   1.000
    O31     O    0.09997   0.08717   0.91210   1.000
    O32     O    0.16964   0.19893   0.90356   1.000
    O33     O    0.90686   0.03513   0.20983   1.000
    O34     O    0.82985   0.03509   0.32048   1.000
    O35     O    0.82737   0.68710   0.21806   1.000
    O36     O    0.68293   0.91645   0.31352   1.000
    O37     O    0.80010   0.90021   0.44674   1.000
    O38     O    0.03449   0.89984   0.21373   1.000
    O39     O    0.03135   0.82001   0.32289   1.000
    O40     O    0.68358   0.81350   0.23651   1.000
    O41     O    0.90035   0.68407   0.32389   1.000
    O42     O    0.90332   0.81661   0.44962   1.000
    O43     O    0.85754   0.85972   0.27016   1.000
    O44     O    0.91314   0.90328   0.08850   1.000
    O45     O    0.80329   0.83059   0.09639   1.000
    Og46    Og   0.90528   0.12785   0.73505   1.000
    Og47    Og   0.37811   0.13028   0.72989   1.000
    Og48    Og   0.14000   0.90633   0.73023   1.000
    Og49    Og   0.13919   0.38054   0.72532   1.000
    Og50    Og   0.13033   0.14488   0.96983   1.000
    Og51    Og   0.13586   0.15016   0.49091   1.000
    Og52    Og   0.87438   0.09705   0.26608   1.000
    Og53    Og   0.86948   0.62361   0.26929   1.000
    Og54    Og   0.09478   0.86366   0.26989   1.000
    Og55    Og   0.62119   0.86754   0.27496   1.000
    Og56    Og   0.85700   0.87070   0.03044   1.000
    Og57    Og   0.85324   0.86317   0.50962   1.000
loop_
    _geom_bond_atom_site_label_1
    _geom_bond_atom_site_label_2
    _geom_bond_distance
    _geom_bond_site_symmetry_2
    _ccdc_geom_bond_type
    C18    O44       1.27936      .   S
    C18    O45       1.27911      .   S
    O44    Zn5       1.96042      .   S
    O45    Zn6       1.97832      .   S
    Zn5    O33       1.96965  1_565   S
    Zn5    O38       1.97749  1_655   S
    Zn5    O43       1.96126      .   S
    Zn6    O35       1.97472      .   S
    Zn6    O40       1.96551      .   S
    O33    C14       1.27863      .   S
    O38    C16       1.27891      .   S
    O35    C15       1.27912      .   S
    O40    C17       1.27816      .   S
    C14    O34       1.27839      .   S
    C16    O39       1.27541      .   S
    C15    O41       1.27925      .   S
    O43    Zn3       1.96682      .   S
    C17    O36       1.27814      .   S
    O36    Zn3       1.97121      .   S
    O34    Zn3       1.97892  1_545   S
    O39    Zn4       1.97978  1_455   S
    O41    Zn4       1.96954      .   S
    Zn3    O37       1.96672      .   S
    Zn4    O42       1.97400      .   S
    O37    C19       1.27918      .   S
    O42    C19       1.27904      .   S
    C13    O29       1.27956      .   S
    C13    O24       1.27878      .   S
    O29    Zn0       1.97103      .   S
    O24    Zn7       1.97713      .   S
    Zn0    O28       1.97239      .   S
    Zn0    O26       1.98028  1_545   S
    Zn0    O30       1.96226      .   S
    Zn7    O21       1.97925  1_455   S
    Zn7    O23       1.96756      .   S
    O28    C9        1.27905      .   S
    O26    C10       1.27569      .   S
    O21    C8        1.27854      .   S
    O23    C11       1.27789      .   S
    C11    O27       1.27817      .   S
    C9     O22       1.27992      .   S
    O30    Zn1       1.96010      .   S
    C10    O25       1.27906      .   S
    C8     O20       1.27864      .   S
    O27    Zn2       1.96709      .   S
    O22    Zn2       1.96981      .   S
    O25    Zn1       1.97613  1_565   S
    O20    Zn1       1.97187  1_655   S
    Zn2    O32       1.98282      .   S
    Zn1    O31       1.96398      .   S
    O32    C12       1.27948      .   S
    O31    C12       1.27998      .   S
    O30    Zn7       1.96347      .   S
    O30    Zn2       1.96955      .   S
    O43    Zn4       1.96861      .   S
    O43    Zn6       1.96973      .   S
    C8     Og46      0.49752      .   S
    C9     Og47      0.49755      .   S
    C10    Og48      0.49644      .   S
    C11    Og49      0.49667      .   S
    C12    Og50      0.49641      .   S
    C13    Og51      0.49664      .   S
    C14    Og52      0.49724      .   S
    C15    Og53      0.49745      .   S
    C16    Og54      0.49652      .   S
    C17    Og55      0.49675      .   S
    C18    Og56      0.49614      .   S
    C19    Og57      0.49634      .   S
