# CIF file generated by openbabel 2.4.90, see http://openbabel.sf.net
data_I
_chemical_name_common ''
_cell_length_a 17.233
_cell_length_b 17.256
_cell_length_c 17.407
_cell_angle_alpha 86.76
_cell_angle_beta 86.935
_cell_angle_gamma 89.302
_space_group_name_H-M_alt 'P 1'
_space_group_name_Hall 'P 1'
loop_
    _symmetry_equiv_pos_as_xyz
    x,y,z
loop_
    _atom_site_label
    _atom_site_type_symbol
    _atom_site_fract_x
    _atom_site_fract_y
    _atom_site_fract_z
    _atom_site_occupancy
    C0      C    0.93393   0.13074   0.73563   1.000
    C1      C    0.34937   0.13297   0.72924   1.000
    C2      C    0.14152   0.93500   0.73079   1.000
    C3      C    0.14014   0.35176   0.72522   1.000
    C4      C    0.13234   0.14418   0.94133   1.000
    C5      C    0.13820   0.15070   0.51918   1.000
    C6      C    0.87175   0.06841   0.26575   1.000
    C7      C    0.86693   0.65231   0.26997   1.000
    C8      C    0.06609   0.86190   0.26927   1.000
    C9      C    0.65001   0.86644   0.27504   1.000
    C10     C    0.85744   0.86901   0.05896   1.000
    C11     C    0.85261   0.86103   0.48134   1.000
