# CIF file generated by openbabel 2.4.90, see http://openbabel.sf.net
data_I
_chemical_name_common ''
_cell_length_a 17.233
_cell_length_b 17.256
_cell_length_c 17.407
_cell_angle_alpha 86.76
_cell_angle_beta 86.935
_cell_angle_gamma 89.302
_space_group_name_H-M_alt 'P 1'
_space_group_name_Hall 'P 1'
loop_
    _symmetry_equiv_pos_as_xyz
    x,y,z
loop_
    _atom_site_label
    _atom_site_type_symbol
    _atom_site_fract_x
    _atom_site_fract_y
    _atom_site_fract_z
    _atom_site_occupancy
    Zr0     Zr   0.07578   0.20998   0.66603   1.000
    Zr1     Zr   0.20669   0.08188   0.65958   1.000
    Zr2     Zr   0.07960   0.07641   0.80329   1.000
    Zr3     Zr   0.20625   0.20639   0.79347   1.000
    Zr4     Zr   0.79312   0.92684   0.33595   1.000
    Zr5     Zr   0.91996   0.79403   0.34002   1.000
    Zr6     Zr   0.92386   0.92340   0.19713   1.000
    Zr7     Zr   0.79395   0.79685   0.20699   1.000
    Zr8     Zr   0.93393   0.13074   0.73563   1.000
    Zr9     Zr   0.34937   0.13297   0.72924   1.000
    Zr10    Zr   0.14152   0.93500   0.73079   1.000
    Zr11    Zr   0.14014   0.35176   0.72522   1.000
    Zr12    Zr   0.13234   0.14418   0.94133   1.000
    Zr13    Zr   0.13820   0.15070   0.51918   1.000
    Zr14    Zr   0.87175   0.06841   0.26575   1.000
    Zr15    Zr   0.86693   0.65231   0.26997   1.000
    Zr16    Zr   0.06609   0.86190   0.26927   1.000
    Zr17    Zr   0.65001   0.86644   0.27504   1.000
    Zr18    Zr   0.85744   0.86901   0.05896   1.000
    Zr19    Zr   0.85261   0.86103   0.48134   1.000
    Zr20    Zr   0.96760   0.09312   0.79003   1.000
    Zr21    Zr   0.96670   0.17578   0.68307   1.000
    Zr22    Zr   0.31480   0.16971   0.78322   1.000
    Zr23    Zr   0.08963   0.31980   0.68649   1.000
    Zr24    Zr   0.09931   0.20288   0.55421   1.000
    Zr25    Zr   0.10351   0.96620   0.78632   1.000
    Zr26    Zr   0.18294   0.97008   0.67701   1.000
    Zr27    Zr   0.19278   0.31721   0.76370   1.000
    Zr28    Zr   0.31714   0.10288   0.67364   1.000
    Zr29    Zr   0.18301   0.09983   0.55044   1.000
    Zr30    Zr   0.14251   0.14353   0.73045   1.000
    Zr31    Zr   0.09997   0.08717   0.91210   1.000
    Zr32    Zr   0.16964   0.19893   0.90356   1.000
    Zr33    Zr   0.90686   0.03513   0.20983   1.000
    Zr34    Zr   0.82985   0.03509   0.32048   1.000
    Zr35    Zr   0.82737   0.68710   0.21806   1.000
    Zr36    Zr   0.68293   0.91645   0.31352   1.000
    Zr37    Zr   0.80010   0.90021   0.44674   1.000
    Zr38    Zr   0.03449   0.89984   0.21373   1.000
    Zr39    Zr   0.03135   0.82001   0.32289   1.000
    Zr40    Zr   0.68358   0.81350   0.23651   1.000
    Zr41    Zr   0.90035   0.68407   0.32389   1.000
    Zr42    Zr   0.90332   0.81661   0.44962   1.000
    Zr43    Zr   0.85754   0.85972   0.27016   1.000
    Zr44    Zr   0.91314   0.90328   0.08850   1.000
    Zr45    Zr   0.80329   0.83059   0.09639   1.000
    O46     O    0.88529   0.88615   0.07373   1.000
    O47     O    0.83036   0.84980   0.07768   1.000
    O48     O    0.91850   0.91334   0.14282   1.000
    O49     O    0.79862   0.81372   0.15169   1.000
    O50     O    0.91536   0.97926   0.20348   1.000
    O51     O    0.97917   0.91162   0.20543   1.000
    O52     O    0.89070   0.89156   0.23365   1.000
    O53     O    0.81066   0.74197   0.21253   1.000
    O54     O    0.73877   0.80517   0.22175   1.000
    O55     O    0.88930   0.05177   0.23779   1.000
    O56     O    0.05029   0.88087   0.24150   1.000
    O57     O    0.84715   0.66970   0.24402   1.000
    O58     O    0.66679   0.83997   0.25577   1.000
    O59     O    0.85080   0.05175   0.29312   1.000
    O60     O    0.04872   0.84096   0.29608   1.000
    O61     O    0.88364   0.66819   0.29693   1.000
    O62     O    0.82533   0.89328   0.30306   1.000
    O63     O    0.66647   0.89144   0.29428   1.000
    O64     O    0.73803   0.92165   0.32474   1.000
    O65     O    0.81149   0.98097   0.32822   1.000
    O66     O    0.97565   0.80702   0.33146   1.000
    O67     O    0.91015   0.73905   0.33196   1.000
    O68     O    0.79661   0.91353   0.39135   1.000
    O69     O    0.91164   0.80532   0.39482   1.000
    O70     O    0.82636   0.88062   0.46404   1.000
    O71     O    0.87797   0.83882   0.46548   1.000
    O72     O    0.16060   0.12527   0.53481   1.000
    O73     O    0.11876   0.17679   0.53670   1.000
    O74     O    0.19485   0.09086   0.60501   1.000
    O75     O    0.08755   0.20643   0.61012   1.000
    O76     O    0.26192   0.09238   0.66661   1.000
    O77     O    0.19482   0.02598   0.66829   1.000
    O78     O    0.17460   0.11271   0.69501   1.000
    O79     O    0.02124   0.19288   0.67455   1.000
    O80     O    0.08270   0.26489   0.67626   1.000
    O81     O    0.33325   0.11793   0.70144   1.000
    O82     O    0.16223   0.95254   0.70390   1.000
    O83     O    0.95032   0.15326   0.70935   1.000
    O84     O    0.11488   0.33578   0.70586   1.000
    O85     O    0.16646   0.33449   0.74446   1.000
    O86     O    0.33209   0.15134   0.75623   1.000
    O87     O    0.11106   0.10997   0.76687   1.000
    O88     O    0.12251   0.95060   0.75856   1.000
    O89     O    0.95077   0.11193   0.76283   1.000
    O90     O    0.19952   0.26180   0.77858   1.000
    O91     O    0.26053   0.18805   0.78835   1.000
    O92     O    0.09155   0.02131   0.79481   1.000
    O93     O    0.02360   0.08477   0.79666   1.000
    O94     O    0.18795   0.20266   0.84852   1.000
    O95     O    0.08978   0.08179   0.85769   1.000
    O96     O    0.15099   0.17155   0.92244   1.000
    O97     O    0.11615   0.11568   0.92671   1.000
    O98     O    0.10915   0.17675   0.69824   1.000
    O99     O    0.17438   0.17496   0.76196   1.000
    O100    O    0.88875   0.82687   0.30509   1.000
    O101    O    0.82575   0.82828   0.23857   1.000
    N102    N    0.12409   0.14758   0.23090   1.000
    O103    O    0.12939   0.14873   0.35383   1.000
    O104    O    0.12670   0.14641   0.10749   1.000
    N105    N    0.88226   0.36023   0.26692   1.000
    O106    O    0.87650   0.48474   0.26794   1.000
    O107    O    0.87898   0.23580   0.26658   1.000
    N108    N    0.64188   0.11791   0.73266   1.000
    O109    O    0.51718   0.12342   0.73143   1.000
    O110    O    0.76642   0.12216   0.73371   1.000
    N111    N    0.35776   0.87166   0.27346   1.000
    O112    O    0.48227   0.86987   0.27419   1.000
    O113    O    0.23344   0.86810   0.27183   1.000
    N114    N    0.85572   0.87500   0.76946   1.000
    O115    O    0.85625   0.87327   0.89282   1.000
    O116    O    0.85464   0.86962   0.64661   1.000
    N117    N    0.13403   0.64361   0.72698   1.000
    O118    O    0.13637   0.51927   0.72617   1.000
    O119    O    0.13663   0.76780   0.72847   1.000
loop_
    _geom_bond_atom_site_label_1
    _geom_bond_atom_site_label_2
    _geom_bond_distance
    _geom_bond_site_symmetry_2
    _ccdc_geom_bond_type
    Zr18   O46       0.63968      .   S
    Zr44   O46       0.63968      .   S
    Zr18   O47       0.63956      .   S
    Zr45   O47       0.63956      .   S
    Zr44   O48       0.98021      .   S
    Zr6    O48       0.98021      .   S
    Zr45   O49       0.98916      .   S
    Zr7    O49       0.98916      .   S
    Zr6    O50       0.98482      .   S
    Zr33   O50       0.98482  1_545   S
    Zr6    O51       0.98875      .   S
    Zr38   O51       0.98875  1_455   S
    Zr6    O52       0.98063      .   S
    Zr43   O52       0.98063      .   S
    Zr7    O53       0.98736      .   S
    Zr35   O53       0.98736      .   S
    Zr7    O54       0.98275      .   S
    Zr40   O54       0.98275      .   S
    Zr33   O55       0.63932      .   S
    Zr14   O55       0.63932      .   S
    Zr38   O56       0.63946      .   S
    Zr16   O56       0.63946      .   S
    Zr35   O57       0.63956      .   S
    Zr15   O57       0.63956      .   S
    Zr40   O58       0.63908      .   S
    Zr17   O58       0.63908      .   S
    Zr14   O59       0.63920      .   S
    Zr34   O59       0.63920      .   S
    Zr16   O60       0.63771      .   S
    Zr39   O60       0.63771      .   S
    Zr15   O61       0.63963      .   S
    Zr41   O61       0.63963      .   S
    Zr43   O62       0.98341      .   S
    Zr4    O62       0.98341      .   S
    Zr17   O63       0.63907      .   S
    Zr36   O63       0.63907      .   S
    Zr36   O64       0.98560      .   S
    Zr4    O64       0.98560      .   S
    Zr34   O65       0.98946  1_545   S
    Zr4    O65       0.98946      .   S
    Zr39   O66       0.98989  1_455   S
    Zr5    O66       0.98989      .   S
    Zr41   O67       0.98477      .   S
    Zr5    O67       0.98477      .   S
    Zr4    O68       0.98336      .   S
    Zr37   O68       0.98336      .   S
    Zr5    O69       0.98700      .   S
    Zr42   O69       0.98700      .   S
    Zr37   O70       0.63959      .   S
    Zr19   O70       0.63959      .   S
    Zr42   O71       0.63952      .   S
    Zr19   O71       0.63952      .   S
    Zr13   O72       0.63978      .   S
    Zr29   O72       0.63978      .   S
    Zr13   O73       0.63939      .   S
    Zr24   O73       0.63939      .   S
    Zr29   O74       0.98552      .   S
    Zr1    O74       0.98552      .   S
    Zr24   O75       0.98857      .   S
    Zr0    O75       0.98857      .   S
    Zr1    O76       0.98619      .   S
    Zr28   O76       0.98619      .   S
    Zr1    O77       0.99014      .   S
    Zr26   O77       0.99014  1_565   S
    Zr1    O78       0.98113      .   S
    Zr30   O78       0.98113      .   S
    Zr0    O79       0.98963      .   S
    Zr21   O79       0.98963  1_655   S
    Zr0    O80       0.98378      .   S
    Zr23   O80       0.98378      .   S
    Zr28   O81       0.63952      .   S
    Zr9    O81       0.63952      .   S
    Zr26   O82       0.63784      .   S
    Zr10   O82       0.63784      .   S
    Zr21   O83       0.63927      .   S
    Zr8    O83       0.63927      .   S
    Zr23   O84       0.63894      .   S
    Zr11   O84       0.63894      .   S
    Zr11   O85       0.63908      .   S
    Zr27   O85       0.63908      .   S
    Zr9    O86       0.63996      .   S
    Zr22   O86       0.63996      .   S
    Zr30   O87       0.98005      .   S
    Zr2    O87       0.98005      .   S
    Zr10   O88       0.63953      .   S
    Zr25   O88       0.63953      .   S
    Zr8    O89       0.63932      .   S
    Zr20   O89       0.63932      .   S
    Zr27   O90       0.98355      .   S
    Zr3    O90       0.98355      .   S
    Zr22   O91       0.98490      .   S
    Zr3    O91       0.98490      .   S
    Zr25   O92       0.98807  1_565   S
    Zr2    O92       0.98807      .   S
    Zr20   O93       0.98594  1_655   S
    Zr2    O93       0.98594      .   S
    Zr3    O94       0.99141      .   S
    Zr32   O94       0.99141      .   S
    Zr2    O95       0.98199      .   S
    Zr31   O95       0.98199      .   S
    Zr32   O96       0.63974      .   S
    Zr12   O96       0.63974      .   S
    Zr31   O97       0.63999      .   S
    Zr12   O97       0.63999      .   S
    Zr30   O98       0.98173      .   S
    Zr0    O98       0.98173      .   S
    Zr30   O99       0.98478      .   S
    Zr3    O99       0.98478      .   S
    Zr43   O100      0.98431      .   S
    Zr5    O100      0.98431      .   S
    Zr43   O101      0.98487      .   S
    Zr7    O101      0.98487      .   S
    N102   O103      2.14795      .   S
    Zr13   O103      2.89248      .   S
    N102   O104      2.14743      .   S
    Zr12   O104      2.89132  1_556   S
    N105   O106      2.15075      .   S
    Zr15   O106      2.89638      .   S
    N105   O107      2.14892      .   S
    Zr14   O107      2.89357      .   S
    N108   O109      2.15113      .   S
    Zr9    O109      2.89676      .   S
    N108   O110      2.14940      .   S
    Zr8    O110      2.89440      .   S
    N111   O112      2.14629      .   S
    Zr17   O112      2.89124      .   S
    N111   O113      2.14569      .   S
    Zr16   O113      2.89015      .   S
    N114   O115      2.14631      .   S
    Zr18   O115      2.88994  1_554   S
    N114   O116      2.14686      .   S
    Zr19   O116      2.89105      .   S
    N117   O118      2.14640      .   S
    Zr11   O118      2.89134      .   S
    N117   O119      2.14571      .   S
    Zr10   O119      2.89006      .   S
