# CIF file generated by openbabel 2.4.90, see http://openbabel.sf.net
data_I
_chemical_name_common ''
_cell_length_a 18.416
_cell_length_b 18.423
_cell_length_c 18.422
_cell_angle_alpha 60.238
_cell_angle_beta 60.207
_cell_angle_gamma 60.208
_space_group_name_H-M_alt 'P 1'
_space_group_name_Hall 'P 1'
loop_
    _symmetry_equiv_pos_as_xyz
    x,y,z
loop_
    _atom_site_label
    _atom_site_type_symbol
    _atom_site_fract_x
    _atom_site_fract_y
    _atom_site_fract_z
    _atom_site_occupancy
    C0      C    0.11091   0.38898   0.11099   1.000
    C1      C    0.38911   0.11112   0.38910   1.000
    C2      C    0.11092   0.11099   0.38000   1.000
    C3      C    0.38911   0.38908   0.11113   1.000
    C4      C    0.11115   0.38905   0.38907   1.000
    C5      C    0.38895   0.11100   0.11100   1.000
    C6      C    0.61106   0.88897   0.88901   1.000
    C7      C    0.88886   0.61092   0.61095   1.000
    C8      C    0.88909   0.88898   0.61102   1.000
    C9      C    0.61091   0.61089   0.88888   1.000
    C10     C    0.61090   0.88884   0.61092   1.000
    C11     C    0.88910   0.61099   0.88900   1.000
