# CIF file generated by openbabel 2.4.90, see http://openbabel.sf.net
data_I
_chemical_name_common ''
_cell_length_a 18.416
_cell_length_b 18.423
_cell_length_c 18.422
_cell_angle_alpha 60.238
_cell_angle_beta 60.207
_cell_angle_gamma 60.208
_space_group_name_H-M_alt 'P 1'
_space_group_name_Hall 'P 1'
loop_
    _symmetry_equiv_pos_as_xyz
    x,y,z
loop_
    _atom_site_label
    _atom_site_type_symbol
    _atom_site_fract_x
    _atom_site_fract_y
    _atom_site_fract_z
    _atom_site_occupancy
    C0      C    0.20673   0.38037   0.20670   1.000
    C1      C    0.38049   0.20676   0.20676   1.000
    C2      C    0.20615   0.20638   0.20638   1.000
    C3      C    0.20673   0.20669   0.38039   1.000
    C4      C    0.61952   0.79321   0.79320   1.000
    C5      C    0.79328   0.61960   0.79332   1.000
    C6      C    0.79386   0.79359   0.79364   1.000
    C7      C    0.79327   0.79328   0.61962   1.000
    C8      C    0.04851   0.56801   0.04852   1.000
    C9      C    0.56820   0.04808   0.33574   1.000
    C10     C    0.04765   0.33575   0.04766   1.000
    C11     C    0.33563   0.04818   0.56800   1.000
    C12     C    0.04765   0.04767   0.33575   1.000
    C13     C    0.56819   0.33574   0.04807   1.000
    C14     C    0.04852   0.04851   0.56804   1.000
    C15     C    0.33562   0.56804   0.04819   1.000
    C16     C    0.04816   0.33573   0.56804   1.000
    C17     C    0.56812   0.04847   0.04846   1.000
    C18     C    0.04816   0.56801   0.33574   1.000
    C19     C    0.33564   0.04774   0.04773   1.000
    C20     C    0.43189   0.95151   0.95155   1.000
    C21     C    0.95185   0.43197   0.66427   1.000
    C22     C    0.66437   0.95224   0.95228   1.000
    C23     C    0.95186   0.66424   0.43198   1.000
    C24     C    0.95236   0.95230   0.66426   1.000
    C25     C    0.66439   0.43193   0.95182   1.000
    C26     C    0.95149   0.95146   0.43198   1.000
    C27     C    0.43182   0.66423   0.95194   1.000
    C28     C    0.66438   0.95179   0.43195   1.000
    C29     C    0.95150   0.43196   0.95100   1.000
    C30     C    0.43181   0.95190   0.66427   1.000
    C31     C    0.95236   0.66422   0.95235   1.000
    C32     C    0.02688   0.53897   0.02688   1.000
    C33     C    0.53911   0.02663   0.40770   1.000
    C34     C    0.02639   0.40770   0.02640   1.000
    C35     C    0.40764   0.02668   0.53903   1.000
    C36     C    0.02639   0.02640   0.40771   1.000
    C37     C    0.53910   0.40769   0.02662   1.000
    C38     C    0.02689   0.02688   0.53899   1.000
    C39     C    0.40763   0.53901   0.02669   1.000
    C40     C    0.02667   0.40769   0.53902   1.000
    C41     C    0.53903   0.02686   0.02680   1.000
    C42     C    0.02667   0.53900   0.40770   1.000
    C43     C    0.40764   0.02644   0.02644   1.000
    C44     C    0.46098   0.97311   0.97316   1.000
    C45     C    0.97334   0.46098   0.59231   1.000
    C46     C    0.59237   0.97353   0.97358   1.000
    C47     C    0.97334   0.59228   0.46099   1.000
    C48     C    0.97362   0.97357   0.59230   1.000
    C49     C    0.59238   0.46096   0.97332   1.000
    C50     C    0.97312   0.97309   0.46102   1.000
    C51     C    0.46091   0.59228   0.97339   1.000
    C52     C    0.59237   0.97328   0.46098   1.000
    C53     C    0.97313   0.46100   0.97313   1.000
    C54     C    0.46090   0.97334   0.59231   1.000
    C55     C    0.97362   0.59227   0.97362   1.000
    C56     C    0.11091   0.38898   0.11099   1.000
    C57     C    0.05362   0.44632   0.05364   1.000
    C58     C    0.38911   0.11112   0.38910   1.000
    C59     C    0.44641   0.05367   0.44600   1.000
    C60     C    0.11092   0.11099   0.38000   1.000
    C61     C    0.05362   0.05364   0.44634   1.000
    C62     C    0.38911   0.38908   0.11113   1.000
    C63     C    0.44640   0.44638   0.05367   1.000
    C64     C    0.11115   0.38905   0.38907   1.000
    C65     C    0.05368   0.44637   0.44639   1.000
    C66     C    0.38895   0.11100   0.11100   1.000
    C67     C    0.44632   0.05365   0.05365   1.000
    C68     C    0.61106   0.88897   0.88901   1.000
    C69     C    0.55369   0.94632   0.94636   1.000
    C70     C    0.88886   0.61092   0.61095   1.000
    C71     C    0.94633   0.55360   0.55363   1.000
    C72     C    0.88909   0.88898   0.61102   1.000
    C73     C    0.94639   0.94633   0.55368   1.000
    C74     C    0.61091   0.61089   0.88888   1.000
    C75     C    0.55361   0.55359   0.94635   1.000
    C76     C    0.61090   0.88884   0.61092   1.000
    C77     C    0.55360   0.94631   0.55362   1.000
    C78     C    0.88910   0.61099   0.88900   1.000
    C79     C    0.94639   0.55365   0.94637   1.000
    C80     C    0.25000   0.25000   0.25000   1.000
    C81     C    0.75001   0.74998   0.75001   1.000
    C82     C    0.13324   0.42860   0.13318   1.000
    C83     C    0.42871   0.13339   0.30535   1.000
    C84     C    0.13278   0.30521   0.13300   1.000
    C85     C    0.30531   0.13323   0.42866   1.000
    C86     C    0.13276   0.13303   0.30522   1.000
    C87     C    0.42871   0.30534   0.13337   1.000
    C88     C    0.13326   0.13316   0.42862   1.000
    C89     C    0.30531   0.42864   0.13324   1.000
    C90     C    0.13330   0.30532   0.42861   1.000
    C91     C    0.42861   0.13325   0.13324   1.000
    C92     C    0.13330   0.42860   0.30534   1.000
    C93     C    0.30512   0.13296   0.13290   1.000
    C94     C    0.57140   0.86673   0.86677   1.000
    C95     C    0.86671   0.57138   0.69468   1.000
    C96     C    0.69489   0.86701   0.86704   1.000
    C97     C    0.86671   0.69465   0.57140   1.000
    C98     C    0.86725   0.86695   0.69480   1.000
    C99     C    0.69470   0.57133   0.86678   1.000
    C100    C    0.86676   0.86680   0.57139   1.000
    C101    C    0.57131   0.69463   0.86664   1.000
    C102    C    0.69470   0.86674   0.57135   1.000
    C103    C    0.86677   0.57137   0.86683   1.000
    C104    C    0.57130   0.86658   0.69466   1.000
    C105    C    0.86723   0.69476   0.86701   1.000
    O106    O    0.03702   0.37172   0.03703   1.000
    O107    O    0.04001   0.42701   0.04002   1.000
    O108    O    0.99976   0.43435   0.99977   1.000
    O109    O    0.37164   0.03709   0.03708   1.000
    O110    O    0.42698   0.04005   0.04004   1.000
    O111    O    0.43431   0.99978   0.99980   1.000
    O112    O    0.55365   0.37171   0.03735   1.000
    O113    O    0.49275   0.42704   0.04015   1.000
    O114    O    0.56574   0.43432   0.99997   1.000
    O115    O    0.37163   0.55353   0.03744   1.000
    O116    O    0.42702   0.49270   0.04018   1.000
    O117    O    0.43427   0.56565   0.00004   1.000
    O118    O    0.55357   0.03766   0.03763   1.000
    O119    O    0.49267   0.04025   0.04022   1.000
    O120    O    0.56570   0.00019   0.00019   1.000
    O121    O    0.03769   0.55349   0.03770   1.000
    O122    O    0.04025   0.49265   0.04026   1.000
    O123    O    0.00025   0.56562   0.00025   1.000
    O124    O    0.08227   0.41765   0.08231   1.000
    O125    O    0.41763   0.08233   0.08232   1.000
    O126    O    0.41775   0.41773   0.08240   1.000
    O127    O    0.12185   0.34710   0.12200   1.000
    O128    O    0.12208   0.40879   0.12208   1.000
    O129    O    0.34703   0.12198   0.12195   1.000
    O130    O    0.40878   0.12212   0.12212   1.000
    O131    O    0.34721   0.40886   0.12219   1.000
    O132    O    0.40891   0.34721   0.12225   1.000
    O133    O    0.25563   0.16967   0.16964   1.000
    O134    O    0.16946   0.25579   0.16969   1.000
    O135    O    0.16999   0.40449   0.16994   1.000
    O136    O    0.40455   0.17000   0.17000   1.000
    O137    O    0.25602   0.40451   0.16997   1.000
    O138    O    0.40460   0.25605   0.17006   1.000
    O139    O    0.16945   0.16970   0.25580   1.000
    O140    O    0.22837   0.31519   0.22835   1.000
    O141    O    0.17002   0.40449   0.25602   1.000
    O142    O    0.40460   0.17007   0.25605   1.000
    O143    O    0.22837   0.22834   0.31519   1.000
    O144    O    0.12184   0.12201   0.34261   1.000
    O145    O    0.12222   0.40882   0.34720   1.000
    O146    O    0.40891   0.12225   0.34723   1.000
    O147    O    0.03742   0.55350   0.37172   1.000
    O148    O    0.55365   0.03735   0.37172   1.000
    O149    O    0.03702   0.03704   0.37173   1.000
    O150    O    0.12209   0.12208   0.40431   1.000
    O151    O    0.08227   0.08232   0.41317   1.000
    O152    O    0.17002   0.25601   0.40450   1.000
    O153    O    0.17000   0.16993   0.40451   1.000
    O154    O    0.25602   0.16996   0.40452   1.000
    O155    O    0.12222   0.34719   0.40884   1.000
    O156    O    0.08241   0.41771   0.41773   1.000
    O157    O    0.34721   0.12218   0.40888   1.000
    O158    O    0.41776   0.08239   0.41755   1.000
    O159    O    0.49276   0.04015   0.42685   1.000
    O160    O    0.56574   0.99995   0.43434   1.000
    O161    O    0.04018   0.49268   0.42705   1.000
    O162    O    0.00001   0.56564   0.43434   1.000
    O163    O    0.04001   0.04002   0.42702   1.000
    O164    O    0.99976   0.99975   0.43436   1.000
    O165    O    0.62838   0.96254   0.44647   1.000
    O166    O    0.96231   0.96228   0.44650   1.000
    O167    O    0.96260   0.62826   0.44648   1.000
    O168    O    0.42702   0.04017   0.49251   1.000
    O169    O    0.04026   0.04026   0.49267   1.000
    O170    O    0.04018   0.42703   0.49271   1.000
    O171    O    0.57299   0.95979   0.50730   1.000
    O172    O    0.95983   0.57294   0.50731   1.000
    O173    O    0.95976   0.95971   0.50735   1.000
    O174    O    0.03771   0.03769   0.55351   1.000
    O175    O    0.00025   0.00022   0.56565   1.000
    O176    O    0.03741   0.37171   0.55353   1.000
    O177    O    0.00000   0.43433   0.56567   1.000
    O178    O    0.37163   0.03743   0.55351   1.000
    O179    O    0.43427   0.00001   0.56567   1.000
    O180    O    0.50725   0.95982   0.57296   1.000
    O181    O    0.58225   0.91757   0.58227   1.000
    O182    O    0.95983   0.50729   0.57297   1.000
    O183    O    0.91759   0.58226   0.58229   1.000
    O184    O    0.96000   0.95995   0.57299   1.000
    O185    O    0.91774   0.91766   0.58235   1.000
    O186    O    0.65280   0.87779   0.59113   1.000
    O187    O    0.74399   0.83001   0.59549   1.000
    O188    O    0.87793   0.87789   0.59120   1.000
    O189    O    0.83002   0.83004   0.59550   1.000
    O190    O    0.87779   0.65278   0.59118   1.000
    O191    O    0.82999   0.74397   0.59551   1.000
    O192    O    0.96299   0.96294   0.62828   1.000
    O193    O    0.96259   0.44647   0.62829   1.000
    O194    O    0.44636   0.96262   0.62829   1.000
    O195    O    0.59110   0.87771   0.65279   1.000
    O196    O    0.87778   0.59115   0.65281   1.000
    O197    O    0.87817   0.87797   0.65291   1.000
    O198    O    0.77164   0.77163   0.68481   1.000
    O199    O    0.59541   0.82990   0.74393   1.000
    O200    O    0.82999   0.59549   0.74400   1.000
    O201    O    0.83055   0.83027   0.74422   1.000
    O202    O    0.77164   0.68479   0.77166   1.000
    O203    O    0.59541   0.74392   0.82992   1.000
    O204    O    0.59546   0.82997   0.82998   1.000
    O205    O    0.74399   0.59546   0.83005   1.000
    O206    O    0.83002   0.59548   0.83008   1.000
    O207    O    0.83055   0.74418   0.83032   1.000
    O208    O    0.74438   0.83030   0.83034   1.000
    O209    O    0.59111   0.65276   0.87776   1.000
    O210    O    0.59123   0.87785   0.87789   1.000
    O211    O    0.65280   0.59111   0.87783   1.000
    O212    O    0.87793   0.59118   0.87792   1.000
    O213    O    0.87816   0.65287   0.87800   1.000
    O214    O    0.65298   0.87799   0.87803   1.000
    O215    O    0.58226   0.58224   0.91761   1.000
    O216    O    0.91774   0.58232   0.91769   1.000
    O217    O    0.58238   0.91764   0.91768   1.000
    O218    O    0.57300   0.50727   0.95983   1.000
    O219    O    0.50726   0.57293   0.95987   1.000
    O220    O    0.50734   0.95972   0.95976   1.000
    O221    O    0.57303   0.95992   0.95997   1.000
    O222    O    0.95976   0.50732   0.95975   1.000
    O223    O    0.96001   0.57296   0.96000   1.000
    O224    O    0.96232   0.44648   0.96206   1.000
    O225    O    0.44643   0.96231   0.96235   1.000
    O226    O    0.62838   0.44644   0.96257   1.000
    O227    O    0.44637   0.62826   0.96266   1.000
    O228    O    0.62837   0.96288   0.96293   1.000
    O229    O    0.96299   0.62825   0.96298   1.000
    O230    O    0.31524   0.22838   0.22838   1.000
    O231    O    0.22807   0.22819   0.22819   1.000
    O232    O    0.68477   0.77159   0.77160   1.000
    O233    O    0.77194   0.77178   0.77182   1.000
loop_
    _geom_bond_atom_site_label_1
    _geom_bond_atom_site_label_2
    _geom_bond_distance
    _geom_bond_site_symmetry_2
    _ccdc_geom_bond_type
    C34    O106      0.54431      .   S
    C10    O106      0.54431      .   S
    C34    O107      0.70157      .   S
    C57    O107      0.70157      .   S
    C34    O108      0.69500  1_454   S
    C53    O108      0.69500      .   S
    C43    O109      0.54431      .   S
    C19    O109      0.54431      .   S
    C43    O110      0.70158      .   S
    C67    O110      0.70158      .   S
    C43    O111      0.69530  1_544   S
    C44    O111      0.69530      .   S
    C37    O112      0.54430      .   S
    C13    O112      0.54430      .   S
    C37    O113      0.70158      .   S
    C63    O113      0.70158      .   S
    C37    O114      0.69510  1_554   S
    C49    O114      0.69510      .   S
    C39    O115      0.54430      .   S
    C15    O115      0.54430      .   S
    C39    O116      0.70159      .   S
    C63    O116      0.70159      .   S
    C39    O117      0.69510      .   S
    C51    O117      0.69510  1_556   S
    C41    O118      0.54468      .   S
    C17    O118      0.54468      .   S
    C41    O119      0.70165      .   S
    C67    O119      0.70165      .   S
    C41    O120      0.69491      .   S
    C46    O120      0.69491  1_566   S
    C32    O121      0.54432      .   S
    C8     O121      0.54432      .   S
    C32    O122      0.70170      .   S
    C57    O122      0.70170      .   S
    C32    O123      0.69493      .   S
    C55    O123      0.69493  1_656   S
    C57    O124      0.74792      .   S
    C56    O124      0.74792      .   S
    C67    O125      0.74809      .   S
    C66    O125      0.74809      .   S
    C63    O126      0.74761      .   S
    C62    O126      0.74761      .   S
    C56    O127      0.63873      .   S
    C84    O127      0.63873      .   S
    C56    O128      0.63848      .   S
    C82    O128      0.63848      .   S
    C66    O129      0.63878      .   S
    C93    O129      0.63878      .   S
    C66    O130      0.63853      .   S
    C91    O130      0.63853      .   S
    C62    O131      0.63855      .   S
    C89    O131      0.63855      .   S
    C62    O132      0.63857      .   S
    C87    O132      0.63857      .   S
    C93    O133      0.98741      .   S
    C2     O133      0.98741      .   S
    C84    O134      0.98681      .   S
    C2     O134      0.98681      .   S
    C82    O135      0.98579      .   S
    C0     O135      0.98579      .   S
    C91    O136      0.98609      .   S
    C1     O136      0.98609      .   S
    C89    O137      0.98562      .   S
    C0     O137      0.98562      .   S
    C87    O138      0.98576      .   S
    C1     O138      0.98576      .   S
    C2     O139      0.98677      .   S
    C86    O139      0.98677      .   S
    C0     O140      0.98339      .   S
    C80    O140      0.98339      .   S
    C0     O141      0.98576      .   S
    C92    O141      0.98576      .   S
    C1     O142      0.98577      .   S
    C83    O142      0.98577      .   S
    C80    O143      0.98341      .   S
    C3     O143      0.98341      .   S
    C86    O144      0.56585      .   S
    C60    O144      0.56585      .   S
    C92    O145      0.63851      .   S
    C64    O145      0.63851      .   S
    C83    O146      0.63861      .   S
    C58    O146      0.63861      .   S
    C18    O147      0.54430      .   S
    C42    O147      0.54430      .   S
    C9     O148      0.54430      .   S
    C33    O148      0.54430      .   S
    C12    O149      0.54433      .   S
    C36    O149      0.54433      .   S
    C60    O150      0.71327      .   S
    C88    O150      0.71327      .   S
    C60    O151      0.75291      .   S
    C61    O151      0.75291      .   S
    C3     O152      0.98575      .   S
    C90    O152      0.98575      .   S
    C3     O153      0.98575      .   S
    C88    O153      0.98575      .   S
    C3     O154      0.98566      .   S
    C85    O154      0.98566      .   S
    C64    O155      0.63853      .   S
    C90    O155      0.63853      .   S
    C64    O156      0.74767      .   S
    C65    O156      0.74767      .   S
    C58    O157      0.63854      .   S
    C85    O157      0.63854      .   S
    C58    O158      0.74502      .   S
    C59    O158      0.74502      .   S
    C33    O159      0.70131      .   S
    C59    O159      0.70131      .   S
    C33    O160      0.69510  1_545   S
    C52    O160      0.69510      .   S
    C42    O161      0.70156      .   S
    C65    O161      0.70156      .   S
    C42    O162      0.69511      .   S
    C47    O162      0.69511  1_655   S
    C36    O163      0.70160      .   S
    C61    O163      0.70160      .   S
    C36    O164      0.69532  1_445   S
    C50    O164      0.69532      .   S
    C28    O165      0.54430      .   S
    C52    O165      0.54430      .   S
    C26    O166      0.54427      .   S
    C50    O166      0.54427      .   S
    C23    O167      0.54429      .   S
    C47    O167      0.54429      .   S
    C59    O168      0.70444      .   S
    C35    O168      0.70444      .   S
    C61    O169      0.70167      .   S
    C38    O169      0.70167      .   S
    C65    O170      0.70154      .   S
    C40    O170      0.70154      .   S
    C52    O171      0.70160      .   S
    C77    O171      0.70160      .   S
    C47    O172      0.70161      .   S
    C71    O172      0.70161      .   S
    C50    O173      0.70175      .   S
    C73    O173      0.70175      .   S
    C38    O174      0.54435      .   S
    C14    O174      0.54435      .   S
    C38    O175      0.69533      .   S
    C48    O175      0.69533  1_665   S
    C40    O176      0.54429      .   S
    C16    O176      0.54429      .   S
    C40    O177      0.69511      .   S
    C45    O177      0.69511  1_655   S
    C35    O178      0.54426      .   S
    C11    O178      0.54426      .   S
    C35    O179      0.69510      .   S
    C54    O179      0.69510  1_565   S
    C77    O180      0.70158      .   S
    C54    O180      0.70158      .   S
    C77    O181      0.74762      .   S
    C76    O181      0.74762      .   S
    C71    O182      0.70156      .   S
    C45    O182      0.70156      .   S
    C71    O183      0.74767      .   S
    C70    O183      0.74767      .   S
    C73    O184      0.70152      .   S
    C48    O184      0.70152      .   S
    C73    O185      0.74791      .   S
    C72    O185      0.74791      .   S
    C102   O186      0.63855      .   S
    C76    O186      0.63855      .   S
    C102   O187      0.98565      .   S
    C7     O187      0.98565      .   S
    C100   O188      0.63854      .   S
    C72    O188      0.63854      .   S
    C100   O189      0.98575      .   S
    C7     O189      0.98575      .   S
    C97    O190      0.63855      .   S
    C70    O190      0.63855      .   S
    C97    O191      0.98576      .   S
    C7     O191      0.98576      .   S
    C48    O192      0.54433      .   S
    C24    O192      0.54433      .   S
    C45    O193      0.54430      .   S
    C21    O193      0.54430      .   S
    C54    O194      0.54430      .   S
    C30    O194      0.54430      .   S
    C76    O195      0.63854      .   S
    C104   O195      0.63854      .   S
    C70    O196      0.63851      .   S
    C95    O196      0.63851      .   S
    C72    O197      0.63874      .   S
    C98    O197      0.63874      .   S
    C7     O198      0.98341      .   S
    C81    O198      0.98341      .   S
    C104   O199      0.98539      .   S
    C4     O199      0.98539      .   S
    C95    O200      0.98576      .   S
    C5     O200      0.98576      .   S
    C98    O201      0.98677      .   S
    C6     O201      0.98677      .   S
    C81    O202      0.98339      .   S
    C5     O202      0.98339      .   S
    C4     O203      0.98576      .   S
    C101   O203      0.98576      .   S
    C4     O204      0.98648      .   S
    C94    O204      0.98648      .   S
    C5     O205      0.98563      .   S
    C99    O205      0.98563      .   S
    C5     O206      0.98573      .   S
    C103   O206      0.98573      .   S
    C6     O207      0.98676      .   S
    C105   O207      0.98676      .   S
    C6     O208      0.98698      .   S
    C96    O208      0.98698      .   S
    C101   O209      0.63858      .   S
    C74    O209      0.63858      .   S
    C94    O210      0.63850      .   S
    C68    O210      0.63850      .   S
    C99    O211      0.63855      .   S
    C74    O211      0.63855      .   S
    C103   O212      0.63833      .   S
    C78    O212      0.63833      .   S
    C105   O213      0.63875      .   S
    C78    O213      0.63875      .   S
    C96    O214      0.63870      .   S
    C68    O214      0.63870      .   S
    C74    O215      0.74761      .   S
    C75    O215      0.74761      .   S
    C78    O216      0.74806      .   S
    C79    O216      0.74806      .   S
    C68    O217      0.74811      .   S
    C69    O217      0.74811      .   S
    C75    O218      0.70159      .   S
    C49    O218      0.70159      .   S
    C75    O219      0.70158      .   S
    C51    O219      0.70158      .   S
    C69    O220      0.70169      .   S
    C44    O220      0.70169      .   S
    C69    O221      0.70163      .   S
    C46    O221      0.70163      .   S
    C79    O222      0.70170      .   S
    C53    O222      0.70170      .   S
    C79    O223      0.70163      .   S
    C55    O223      0.70163      .   S
    C29    O224      0.54790      .   S
    C53    O224      0.54790      .   S
    C20    O225      0.54430      .   S
    C44    O225      0.54430      .   S
    C25    O226      0.54430      .   S
    C49    O226      0.54430      .   S
    C27    O227      0.54430      .   S
    C51    O227      0.54430      .   S
    C22    O228      0.54430      .   S
    C46    O228      0.54430      .   S
    C31    O229      0.54430      .   S
    C55    O229      0.54430      .   S
    C80    O230      0.98353      .   S
    C1     O230      0.98353      .   S
    C80    O231      0.98416      .   S
    C2     O231      0.98416      .   S
    C81    O232      0.98353      .   S
    C4     O232      0.98353      .   S
    C81    O233      0.98425      .   S
    C6     O233      0.98425      .   S
