# CIF file generated by openbabel 2.4.90, see http://openbabel.sf.net
data_I
_chemical_name_common ''
_cell_length_a 14.132
_cell_length_b 18.093
_cell_length_c 19.553
_cell_angle_alpha 98.827
_cell_angle_beta 90.064
_cell_angle_gamma 90.027
_space_group_name_H-M_alt 'P 1'
_space_group_name_Hall 'P 1'
loop_
    _symmetry_equiv_pos_as_xyz
    x,y,z
loop_
    _atom_site_label
    _atom_site_type_symbol
    _atom_site_fract_x
    _atom_site_fract_y
    _atom_site_fract_z
    _atom_site_occupancy
    Zr0     Zr   0.20884   0.81634   0.53697   1.000
    Zr1     Zr   0.19300   0.66485   0.35020   1.000
    Zr2     Zr   0.12604   0.47632   0.98006   1.000
    Zr3     Zr   0.26448   0.60045   0.16113   1.000
    Zr4     Zr   0.20845   0.18357   0.96324   1.000
    Zr5     Zr   0.19312   0.33511   0.14973   1.000
    Zr6     Zr   0.12623   0.52380   0.51994   1.000
    Zr7     Zr   0.26419   0.39954   0.33889   1.000
    Zr8     Zr   0.79114   0.18364   0.46290   1.000
    Zr9     Zr   0.80702   0.33510   0.64965   1.000
    Zr10    Zr   0.87399   0.52373   0.02000   1.000
    Zr11    Zr   0.73556   0.39960   0.83886   1.000
    Zr12    Zr   0.79158   0.81645   0.03671   1.000
    Zr13    Zr   0.80696   0.66488   0.85020   1.000
    Zr14    Zr   0.87380   0.47630   0.48010   1.000
    Zr15    Zr   0.73578   0.60052   0.66114   1.000
    N16     N    0.22765   0.89059   0.05965   1.000
    O17     O    0.23884   0.77476   0.10097   1.000
    O18     O    0.22200   0.00713   0.01936   1.000
    N19     N    0.00665   0.72210   0.81121   1.000
    O20     O    0.90056   0.66745   0.75605   1.000
    O21     O    0.91321   0.75796   0.89494   1.000
    O22     O    0.03984   0.62463   0.89843   1.000
    N23     N    0.77237   0.10894   0.94031   1.000
    O24     O    0.76119   0.22503   0.89902   1.000
    O25     O    0.77803   0.99264   0.98059   1.000
    N26     N    0.77261   0.89066   0.55957   1.000
    O27     O    0.77804   0.00719   0.51918   1.000
    O28     O    0.76145   0.77485   0.60094   1.000
    N29     N    0.43966   0.40818   0.42821   1.000
    O30     O    0.34820   0.52878   0.40255   1.000
    O31     O    0.58830   0.31730   0.43952   1.000
    N32     N    0.43984   0.59182   0.07177   1.000
    O33     O    0.58862   0.68275   0.06036   1.000
    O34     O    0.34830   0.47122   0.09739   1.000
    N35     N    0.99324   0.72205   0.31097   1.000
    O36     O    0.90953   0.78238   0.19991   1.000
    O37     O    0.08682   0.75782   0.39500   1.000
    O38     O    0.96009   0.62458   0.39825   1.000
    O39     O    0.09950   0.66740   0.25587   1.000
    N40     N    0.56034   0.59184   0.57174   1.000
    O41     O    0.65181   0.47123   0.59737   1.000
    O42     O    0.41169   0.68271   0.56041   1.000
    N43     N    0.99287   0.27789   0.18876   1.000
    O44     O    0.95994   0.37538   0.10157   1.000
    O45     O    0.09920   0.33255   0.24394   1.000
    O46     O    0.08657   0.24204   0.10502   1.000
    N47     N    0.56018   0.40822   0.92798   1.000
    O48     O    0.41141   0.31728   0.93949   1.000
    O49     O    0.65173   0.52881   0.90245   1.000
    N50     N    0.00626   0.27792   0.68878   1.000
    O51     O    0.91294   0.24215   0.60482   1.000
    O52     O    0.09024   0.21761   0.79994   1.000
    O53     O    0.03969   0.37544   0.60163   1.000
    O54     O    0.90026   0.33260   0.74398   1.000
    N55     N    0.22738   0.10883   0.44038   1.000
    O56     O    0.22195   0.99254   0.48074   1.000
    O57     O    0.23854   0.22492   0.39905   1.000
    O58     O    0.31310   0.54905   0.02829   1.000
    O59     O    0.03921   0.35991   0.09813   1.000
    O60     O    0.68695   0.54907   0.52830   1.000
    O61     O    0.96031   0.35996   0.59820   1.000
    O62     O    0.31307   0.45100   0.47169   1.000
    O63     O    0.03946   0.64006   0.40168   1.000
    O64     O    0.08532   0.76731   0.69610   1.000
    O65     O    0.91444   0.23267   0.30384   1.000
    O66     O    0.96056   0.64010   0.90187   1.000
    O67     O    0.68692   0.45101   0.97160   1.000
    O68     O    0.36765   0.41509   0.38892   1.000
    O69     O    0.36787   0.58492   0.11106   1.000
    O70     O    0.92262   0.69040   0.83934   1.000
    O71     O    0.07994   0.70059   0.33811   1.000
    O72     O    0.63235   0.58496   0.61105   1.000
    O73     O    0.07979   0.29932   0.16176   1.000
    O74     O    0.63215   0.41513   0.88881   1.000
    O75     O    0.92243   0.30965   0.66060   1.000
loop_
    _geom_bond_atom_site_label_1
    _geom_bond_atom_site_label_2
    _geom_bond_distance
    _geom_bond_site_symmetry_2
    _ccdc_geom_bond_type
    N16    O17       2.36406      .   S
    Zr3    O17       3.54970      .   S
    N16    O18       2.36285  1_565   S
    Zr4    O18       3.53654  1_556   S
    N19    O20       2.01401  1_455   S
    Zr15   O20       3.10339      .   S
    N19    O21       2.12716  1_455   S
    Zr12   O21       3.29698  1_554   S
    N19    O22       2.67590      .   S
    Zr2    O22       3.54180      .   S
    N23    O24       2.36840      .   S
    Zr11   O24       3.55417      .   S
    N23    O25       2.35857  1_545   S
    Zr12   O25       3.53223  1_554   S
    N26    O27       2.36339  1_565   S
    Zr8    O27       3.53776      .   S
    N26    O28       2.36434      .   S
    Zr15   O28       3.55045      .   S
    N29    O30       2.64951      .   S
    Zr1    O30       3.56285      .   S
    N29    O31       2.69803      .   S
    Zr8    O31       3.82316      .   S
    N32    O33       2.69948      .   S
    Zr12   O33       3.82519      .   S
    N32    O34       2.64951      .   S
    Zr5    O34       3.56305      .   S
    N35    O36       2.83362      .   S
    Zr12   O36       3.73276      .   S
    N35    O37       2.12959  1_655   S
    Zr0    O37       3.29945      .   S
    N35    O38       2.67713      .   S
    Zr14   O38       3.54466      .   S
    N35    O39       2.01775  1_655   S
    Zr3    O39       3.10786      .   S
    N40    O41       2.64975      .   S
    Zr9    O41       3.56312      .   S
    N40    O42       2.69798      .   S
    Zr0    O42       3.82317      .   S
    N43    O44       2.67521      .   S
    Zr10   O44       3.54054      .   S
    N43    O45       2.01688  1_655   S
    Zr7    O45       3.10629      .   S
    N43    O46       2.12950  1_655   S
    Zr4    O46       3.29899  1_556   S
    N47    O48       2.69989      .   S
    Zr4    O48       3.82568      .   S
    N47    O49       2.64881      .   S
    Zr13   O49       3.56222      .   S
    N50    O51       2.12645  1_455   S
    Zr8    O51       3.29695      .   S
    N50    O52       2.83664      .   S
    Zr4    O52       3.73598      .   S
    N50    O53       2.67655      .   S
    Zr6    O53       3.54533      .   S
    N50    O54       2.01622  1_455   S
    Zr11   O54       3.10653      .   S
    N55    O56       2.35902  1_545   S
    Zr0    O56       3.53311      .   S
    N55    O57       2.36865      .   S
    Zr7    O57       3.55484      .   S
    Zr2    O58       3.03634  1_556   S
    N32    O58       2.07923      .   S
    Zr2    O59       3.57315  1_556   S
    N43    O59       2.56526  1_655   S
    Zr14   O60       3.03677      .   S
    N40    O60       2.07965      .   S
    Zr14   O61       3.57017      .   S
    N50    O61       2.56264  1_455   S
    Zr6    O62       3.03714      .   S
    N29    O62       2.07994      .   S
    Zr6    O63       3.57277      .   S
    N35    O63       2.56495  1_655   S
    Zr0    O64       3.79125      .   S
    N19    O64       2.74602      .   S
    Zr8    O65       3.78860      .   S
    N43    O65       2.74423      .   S
    Zr10   O66       3.57219  1_554   S
    N19    O66       2.56446  1_455   S
    Zr10   O67       3.03732  1_554   S
    N47    O67       2.08027      .   S
    N29    O68       1.29197      .   S
    Zr7    O68       1.75663      .   S
    N32    O69       1.29275      .   S
    Zr3    O69       1.75823      .   S
    N19    O70       1.46255  1_455   S
    Zr13   O70       1.72053      .   S
    N35    O71       1.41280  1_655   S
    Zr1    O71       1.75316      .   S
    N40    O72       1.29224      .   S
    Zr15   O72       1.75693      .   S
    N43    O73       1.41481  1_655   S
    Zr5    O73       1.75674      .   S
    N47    O74       1.29146      .   S
    Zr11   O74       1.75719      .   S
    N50    O75       1.46039  1_455   S
    Zr9    O75       1.71705      .   S
