# CIF file generated by openbabel 2.4.90, see http://openbabel.sf.net
data_I
_chemical_name_common ''
_cell_length_a 13.083
_cell_length_b 18.27
_cell_length_c 18.307
_cell_angle_alpha 89.723
_cell_angle_beta 89.881
_cell_angle_gamma 90.08
_space_group_name_H-M_alt 'P 1'
_space_group_name_Hall 'P 1'
loop_
    _symmetry_equiv_pos_as_xyz
    x,y,z
loop_
    _atom_site_label
    _atom_site_type_symbol
    _atom_site_fract_x
    _atom_site_fract_y
    _atom_site_fract_z
    _atom_site_occupancy
    Ba0     Ba   0.66288   0.84692   0.39090   1.000
    Ba1     Ba   0.41593   0.89290   0.65109   1.000
    Ba2     Ba   0.91511   0.10708   0.34878   1.000
    Ba3     Ba   0.08915   0.34810   0.10857   1.000
    Ba4     Ba   0.58701   0.65291   0.89270   1.000
    Ba5     Ba   0.83734   0.60796   0.15146   1.000
    Ba6     Ba   0.33999   0.39141   0.84770   1.000
    Cd7     Cd   0.25240   0.34752   0.65294   1.000
    Cd8     Cd   0.75017   0.65275   0.34603   1.000
    Cd9     Cd   0.50112   0.84722   0.84605   1.000
    Cd10    Cd   0.00075   0.15408   0.15392   1.000
    Ba11    Ba   0.16498   0.15269   0.60788   1.000
