# CIF file generated by openbabel 2.4.90, see http://openbabel.sf.net
data_I
_chemical_name_common ''
_cell_length_a 13.083
_cell_length_b 18.27
_cell_length_c 18.307
_cell_angle_alpha 89.723
_cell_angle_beta 89.881
_cell_angle_gamma 90.08
_space_group_name_H-M_alt 'P 1'
_space_group_name_Hall 'P 1'
loop_
    _symmetry_equiv_pos_as_xyz
    x,y,z
loop_
    _atom_site_label
    _atom_site_type_symbol
    _atom_site_fract_x
    _atom_site_fract_y
    _atom_site_fract_z
    _atom_site_occupancy
    Zr0     Zr   0.16498   0.15269   0.60788   1.000
    Zr1     Zr   0.66288   0.84692   0.39090   1.000
    Zr2     Zr   0.41593   0.89290   0.65109   1.000
    Zr3     Zr   0.91511   0.10708   0.34878   1.000
    Zr4     Zr   0.08915   0.34810   0.10857   1.000
    Zr5     Zr   0.58701   0.65291   0.89270   1.000
    Zr6     Zr   0.83734   0.60796   0.15146   1.000
    Zr7     Zr   0.33999   0.39141   0.84770   1.000
    Zr8     Zr   0.25240   0.34752   0.65294   1.000
    Zr9     Zr   0.75017   0.65275   0.34603   1.000
    Zr10    Zr   0.50112   0.84722   0.84605   1.000
    Zr11    Zr   0.00075   0.15408   0.15392   1.000
    N12     N    0.75970   0.70647   0.63915   1.000
    O13     O    0.66210   0.75722   0.73123   1.000
    O14     O    0.68358   0.70865   0.74289   1.000
    O15     O    0.77400   0.67664   0.52096   1.000
    O16     O    0.72120   0.74626   0.53285   1.000
    O17     O    0.63053   0.78350   0.65660   1.000
    N18     N    0.01071   0.85982   0.20727   1.000
    O19     O    0.88002   0.84163   0.28333   1.000
    O20     O    0.97305   0.96599   0.24781   1.000
    O21     O    0.91282   0.76738   0.25732   1.000
    O22     O    0.93461   0.75619   0.20867   1.000
    O23     O    0.02450   0.97853   0.17732   1.000
    N24     N    0.51283   0.14093   0.79109   1.000
    O25     O    0.41506   0.23313   0.74100   1.000
    O26     O    0.43696   0.24410   0.78969   1.000
    O27     O    0.38207   0.15858   0.71528   1.000
    O28     O    0.52619   0.02248   0.82164   1.000
    O29     O    0.47478   0.03448   0.75127   1.000
    N30     N    0.74073   0.35891   0.29255   1.000
    O31     O    0.83849   0.26723   0.24262   1.000
    O32     O    0.81708   0.25548   0.29133   1.000
    O33     O    0.72670   0.47726   0.32255   1.000
    O34     O    0.87159   0.34152   0.21640   1.000
    O35     O    0.77859   0.46567   0.25217   1.000
    N36     N    0.99242   0.20814   0.86019   1.000
    O37     O    0.03069   0.24807   0.96655   1.000
    O38     O    0.06847   0.20950   0.75647   1.000
    O39     O    0.09032   0.25821   0.76773   1.000
    O40     O    0.97752   0.17849   0.97872   1.000
    O41     O    0.12334   0.28388   0.84206   1.000
    N42     N    0.19475   0.97022   0.63240   1.000
    N43     N    0.05853   0.52537   0.13236   1.000
    N44     N    0.80886   0.63349   0.97003   1.000
    N45     N    0.56021   0.47487   0.86945   1.000
    N46     N    0.49055   0.79317   0.13888   1.000
    O47     O    0.62105   0.71672   0.15661   1.000
    O48     O    0.47626   0.82320   0.02081   1.000
    O49     O    0.58840   0.74245   0.23109   1.000
    O50     O    0.56658   0.79100   0.24231   1.000
    O51     O    0.52871   0.75354   0.03315   1.000
    N52     N    0.26143   0.29338   0.35997   1.000
    O53     O    0.27598   0.32342   0.47801   1.000
    O54     O    0.16318   0.24300   0.26828   1.000
    O55     O    0.18528   0.29151   0.25694   1.000
    O56     O    0.13138   0.21641   0.34291   1.000
    O57     O    0.22316   0.25357   0.46628   1.000
    N58     N    0.31112   0.36761   0.02551   1.000
    N59     N    0.69287   0.02505   0.36763   1.000
    N60     N    0.24093   0.64114   0.70836   1.000
    O61     O    0.37079   0.65878   0.78461   1.000
    O62     O    0.22784   0.52274   0.67791   1.000
    O63     O    0.28000   0.53444   0.74813   1.000
    O64     O    0.33900   0.73314   0.75786   1.000
    O65     O    0.31770   0.74456   0.70912   1.000
    N66     N    0.94385   0.13051   0.52618   1.000
    N67     N    0.44227   0.86864   0.47354   1.000
    O68     O    0.26120   0.94666   0.63798   1.000
    O69     O    0.18633   0.02328   0.62482   1.000
    O70     O    0.93589   0.12298   0.47326   1.000
    O71     O    0.01019   0.13711   0.55017   1.000
    O72     O    0.31928   0.37500   0.97245   1.000
    O73     O    0.49405   0.45048   0.86297   1.000
    O74     O    0.24449   0.36184   0.04981   1.000
    O75     O    0.75959   0.04906   0.36202   1.000
    O76     O    0.43499   0.87629   0.52651   1.000
    O77     O    0.74227   0.63936   0.94649   1.000
    O78     O    0.56780   0.52796   0.87693   1.000
    O79     O    0.06717   0.47245   0.12496   1.000
    O80     O    0.99209   0.54950   0.13804   1.000
    O81     O    0.81690   0.62543   0.02288   1.000
    O82     O    0.68438   0.97190   0.37489   1.000
    O83     O    0.50844   0.86204   0.44925   1.000
loop_
    _geom_bond_atom_site_label_1
    _geom_bond_atom_site_label_2
    _geom_bond_distance
    _geom_bond_site_symmetry_2
    _ccdc_geom_bond_type
    N12    O13       2.31103      .   S
    Zr10   O13       3.40339      .   S
    N12    O14       2.14317      .   S
    Zr5    O14       3.17961      .   S
    N12    O15       2.24138      .   S
    Zr9    O15       3.24972      .   S
    N12    O16       2.13551      .   S
    Zr1    O16       3.26862      .   S
    N12    O17       2.22415      .   S
    Zr2    O17       3.45011      .   S
    N18    O19       2.22633  1_455   S
    Zr1    O19       3.45509      .   S
    N18    O20       2.13800  1_455   S
    Zr3    O20       3.26840  1_545   S
    N18    O21       2.30347  1_455   S
    Zr9    O21       3.39003      .   S
    N18    O22       2.13797  1_455   S
    Zr6    O22       3.17387      .   S
    N18    O23       2.24144      .   S
    Zr11   O23       3.24913  1_545   S
    N24    O25       2.30453      .   S
    Zr8    O25       3.38967      .   S
    N24    O26       2.13174      .   S
    Zr7    O26       3.16414      .   S
    N24    O27       2.22806      .   S
    Zr0    O27       3.45951      .   S
    N24    O28       2.23957      .   S
    Zr10   O28       3.24703  1_565   S
    N24    O29       2.13871      .   S
    Zr2    O29       3.27006  1_565   S
    N30    O31       2.30056      .   S
    Zr11   O31       3.38341  1_455   S
    N30    O32       2.13874      .   S
    Zr3    O32       3.17644      .   S
    N30    O33       2.24115      .   S
    Zr9    O33       3.25117      .   S
    N30    O34       2.22966      .   S
    Zr4    O34       3.46218  1_455   S
    N30    O35       2.13979      .   S
    Zr6    O35       3.26959      .   S
    N36    O37       2.14258  1_655   S
    Zr4    O37       3.27657  1_554   S
    N36    O38       2.14183  1_655   S
    Zr0    O38       3.17613      .   S
    N36    O39       2.30534  1_655   S
    Zr8    O39       3.39328      .   S
    N36    O40       2.24202      .   S
    Zr11   O40       3.25105  1_454   S
    N36    O41       2.22381  1_655   S
    Zr7    O41       3.44839      .   S
    N46    O47       2.23066      .   S
    Zr6    O47       3.46130      .   S
    N46    O48       2.23564      .   S
    Zr10   O48       3.24283  1_556   S
    N46    O49       2.31184      .   S
    Zr9    O49       3.40411      .   S
    N46    O50       2.14095      .   S
    Zr1    O50       3.17317      .   S
    N46    O51       2.12841      .   S
    Zr5    O51       3.25800  1_556   S
    N52    O53       2.24044      .   S
    Zr8    O53       3.24883      .   S
    N52    O54       2.31040      .   S
    Zr11   O54       3.40298      .   S
    N52    O55       2.13542      .   S
    Zr4    O55       3.16533      .   S
    N52    O56       2.22934      .   S
    Zr3    O56       3.46230  1_655   S
    N52    O57       2.13263      .   S
    Zr0    O57       3.26161      .   S
    N60    O61       2.22527      .   S
    Zr5    O61       3.45701      .   S
    N60    O62       2.24288      .   S
    Zr8    O62       3.25209      .   S
    N60    O63       2.14070      .   S
    Zr7    O63       3.27601      .   S
    N60    O64       2.30356      .   S
    Zr10   O64       3.38874      .   S
    N60    O65       2.13877      .   S
    Zr2    O65       3.17520      .   S
    N42    O68       0.97594      .   S
    Zr2    O68       2.26400      .   S
    N42    O69       0.98503  1_565   S
    Zr0    O69       2.39982      .   S
    N66    O70       0.98476      .   S
    Zr3    O70       2.31531      .   S
    N66    O71       0.98106  1_655   S
    Zr0    O71       2.30404      .   S
    Zr7    O72       2.31728      .   S
    N58    O72       0.98568  1_554   S
    Zr7    O73       2.30314      .   S
    N45    O73       0.98078      .   S
    N58    O74       0.98315      .   S
    Zr4    O74       2.31017      .   S
    Zr3    O75       2.30473      .   S
    N59    O75       0.98133      .   S
    Zr2    O76       2.31522      .   S
    N67    O76       0.98491      .   S
    Zr5    O77       2.27257      .   S
    N44    O77       0.97857      .   S
    Zr5    O78       2.31592      .   S
    N45    O78       0.98498      .   S
    Zr4    O79       2.31115      .   S
    N43    O79       0.98360      .   S
    Zr6    O80       2.30365      .   S
    N43    O80       0.98085  1_455   S
    Zr6    O81       2.38949      .   S
    N44    O81       0.98379  1_556   S
    Zr1    O82       2.31725      .   S
    N59    O82       0.98564  1_545   S
    Zr1    O83       2.30121      .   S
    N67    O83       0.98020      .   S
