# CIF file generated by openbabel 2.4.90, see http://openbabel.sf.net
data_I
_chemical_name_common ''
_cell_length_a 13.59
_cell_length_b 13.596
_cell_length_c 13.604
_cell_angle_alpha 87.248
_cell_angle_beta 87.32
_cell_angle_gamma 87.467
_space_group_name_H-M_alt 'P 1'
_space_group_name_Hall 'P 1'
loop_
    _symmetry_equiv_pos_as_xyz
    x,y,z
loop_
    _atom_site_label
    _atom_site_type_symbol
    _atom_site_fract_x
    _atom_site_fract_y
    _atom_site_fract_z
    _atom_site_occupancy
    Lv0     Lv   0.39086   0.99651   0.38916   1.000
    Lv1     Lv   0.61202   0.00595   0.61086   1.000
    Lv2     Lv   0.60931   0.61232   0.00592   1.000
    Lv3     Lv   0.38784   0.39050   0.99424   1.000
    Lv4     Lv   0.99380   0.39102   0.38958   1.000
    Lv5     Lv   0.00574   0.61205   0.61077   1.000
