# CIF file generated by openbabel 2.4.90, see http://openbabel.sf.net
data_I
_chemical_name_common ''
_cell_length_a 13.59
_cell_length_b 13.596
_cell_length_c 13.604
_cell_angle_alpha 87.248
_cell_angle_beta 87.32
_cell_angle_gamma 87.467
_space_group_name_H-M_alt 'P 1'
_space_group_name_Hall 'P 1'
loop_
    _symmetry_equiv_pos_as_xyz
    x,y,z
loop_
    _atom_site_label
    _atom_site_type_symbol
    _atom_site_fract_x
    _atom_site_fract_y
    _atom_site_fract_z
    _atom_site_occupancy
    H0      H    0.99835   0.43573   0.66500   1.000
    H1      H    0.66696   0.00000   0.43472   1.000
    H2      H    0.43294   0.66670   0.00000   1.000
    H3      H    0.56739   0.00158   0.33475   1.000
    H4      H    0.00110   0.33630   0.56570   1.000
    H5      H    0.33305   0.56660   0.00071   1.000
    H6      H    0.99823   0.56756   0.33516   1.000
    H7      H    0.33642   0.00144   0.56545   1.000
    H8      H    0.56433   0.33679   0.99963   1.000
    H9      H    0.43540   0.00000   0.66476   1.000
    H10     H    0.00000   0.66670   0.43445   1.000
    H11     H    0.66342   0.43605   0.00000   1.000
    H12     H    0.01643   0.73755   0.73655   1.000
    H13     H    0.73750   0.01576   0.73694   1.000
    H14     H    0.73545   0.73806   0.01589   1.000
    H15     H    0.26494   0.98769   0.26343   1.000
    H16     H    0.98340   0.26539   0.26399   1.000
    H17     H    0.26231   0.26424   0.98370   1.000
    C18     C    0.00230   0.51228   0.63890   1.000
    C19     C    0.00758   0.58275   0.70996   1.000
    C20     C    0.64043   0.00343   0.51120   1.000
    C21     C    0.71130   0.00800   0.58203   1.000
    C22     C    0.50951   0.64041   0.00363   1.000
    C23     C    0.58038   0.71143   0.00850   1.000
    C24     C    0.49075   0.99883   0.36107   1.000
    C25     C    0.41997   0.99463   0.29011   1.000
    C26     C    0.99726   0.36275   0.48925   1.000
    C27     C    0.99202   0.29182   0.41870   1.000
    C28     C    0.35952   0.49014   0.99720   1.000
    C29     C    0.28862   0.41920   0.99216   1.000
    C30     C    0.99581   0.49089   0.36149   1.000
    C31     C    0.99085   0.42030   0.29056   1.000
    C32     C    0.36277   0.99879   0.48890   1.000
    C33     C    0.29167   0.99461   0.41830   1.000
    C34     C    0.48769   0.36283   0.99671   1.000
    C35     C    0.41723   0.29152   0.99165   1.000
    C36     C    0.51210   0.00372   0.63867   1.000
    C37     C    0.58256   0.00827   0.70988   1.000
    C38     C    0.00403   0.64029   0.51105   1.000
    C39     C    0.00905   0.71119   0.58166   1.000
    C40     C    0.63721   0.51259   0.00323   1.000
    C41     C    0.70844   0.58317   0.00807   1.000
    C42     C    0.00178   0.53927   0.53790   1.000
    C43     C    0.01211   0.68266   0.68150   1.000
    C44     C    0.53927   0.00261   0.53775   1.000
    C45     C    0.68263   0.01172   0.68181   1.000
    C46     C    0.53619   0.53942   0.00211   1.000
    C47     C    0.68030   0.68306   0.01187   1.000
    C48     C    0.46385   0.99972   0.46200   1.000
    C49     C    0.31998   0.99132   0.31844   1.000
    C50     C    0.99789   0.46386   0.46243   1.000
    C51     C    0.98765   0.32032   0.31892   1.000
    C52     C    0.46064   0.46372   0.99833   1.000
    C53     C    0.31721   0.31944   0.98805   1.000
loop_
    _geom_bond_atom_site_label_1
    _geom_bond_atom_site_label_2
    _geom_bond_distance
    _geom_bond_site_symmetry_2
    _ccdc_geom_bond_type
    H11    C40       1.08718      .   S
    H2     C22       1.08782      .   S
    H5     C28       1.08735  1_554   S
    C46    C40       1.40539      .   S
    C46    C22       1.40550      .   S
    C46    C52       1.48979  1_554   S
    C40    C41       1.39870      .   S
    C22    C23       1.39944      .   S
    C41    C47       1.39730      .   S
    C23    C47       1.39735      .   S
    C47    H14       1.08684      .   S
    H15    C49       1.08677      .   S
    H16    C51       1.08674      .   S
    C25    C49       1.39701      .   S
    C25    C24       1.39913      .   S
    C31    C51       1.39701      .   S
    C31    C30       1.39917      .   S
    C49    C33       1.39678      .   S
    C51    C27       1.39688      .   S
    H3     C24       1.08709  1_545   S
    H6     C30       1.08714      .   S
    C24    C48       1.40474      .   S
    C30    C50       1.40563      .   S
    C33    C32       1.39862      .   S
    C27    C26       1.39909      .   S
    H10    C38       1.08884      .   S
    H1     C20       1.08757      .   S
    C48    C32       1.40549      .   S
    C48    C44       1.49005  1_565   S
    C50    C26       1.40557      .   S
    C50    C42       1.48964  1_655   S
    C32    H7        1.08700  1_565   S
    C26    H4        1.08681  1_655   S
    C38    C42       1.40542      .   S
    C38    C39       1.39912      .   S
    C20    C44       1.40527      .   S
    C20    C21       1.39919      .   S
    C44    C36       1.40555      .   S
    C42    C18       1.40529      .   S
    C39    C43       1.39650      .   S
    C21    C45       1.39723      .   S
    C36    H9        1.08788      .   S
    C36    C37       1.39884      .   S
    C18    H0        1.08623  1_455   S
    C18    C19       1.39964      .   S
    C43    C19       1.39779      .   S
    C43    H12       1.08757      .   S
    C45    C37       1.39754      .   S
    C45    H13       1.08688      .   S
    H17    C53       1.08689      .   S
    C53    C35       1.39746      .   S
    C53    C29       1.39732      .   S
    C35    C34       1.39872      .   S
    C29    C28       1.39937      .   S
    C34    C52       1.40534      .   S
    C34    H8        1.08696      .   S
    C28    C52       1.40549      .   S
