# CIF file generated by openbabel 2.4.90, see http://openbabel.sf.net
data_I
_chemical_name_common ''
_cell_length_a 13.59
_cell_length_b 13.596
_cell_length_c 13.604
_cell_angle_alpha 87.248
_cell_angle_beta 87.32
_cell_angle_gamma 87.467
_space_group_name_H-M_alt 'P 1'
_space_group_name_Hall 'P 1'
loop_
    _symmetry_equiv_pos_as_xyz
    x,y,z
loop_
    _atom_site_label
    _atom_site_type_symbol
    _atom_site_fract_x
    _atom_site_fract_y
    _atom_site_fract_z
    _atom_site_occupancy
    N0      N    0.39086   0.99651   0.38916   1.000
    N1      N    0.61202   0.00595   0.61086   1.000
    O2      O    0.52911   0.00239   0.52769   1.000
    N3      N    0.60931   0.61232   0.00592   1.000
    N4      N    0.38784   0.39050   0.99424   1.000
    O5      O    0.47085   0.47372   0.99865   1.000
    N6      N    0.99380   0.39102   0.38958   1.000
    N7      N    0.00574   0.61205   0.61077   1.000
    O8      O    0.00128   0.52917   0.52782   1.000
    Zr9     Zr   0.50003   0.00163   0.99998   1.000
    O10     O    0.45657   0.99868   0.15644   1.000
    O11     O    0.45523   0.15797   0.99652   1.000
    O12     O    0.54358   0.84512   0.00354   1.000
    O13     O    0.54472   0.00432   0.84353   1.000
    Zr14    Zr   0.99858   0.50111   0.00025   1.000
    O15     O    0.00248   0.54535   0.84368   1.000
    O16     O    0.99549   0.45727   0.15679   1.000
    O17     O    0.15502   0.45682   0.99684   1.000
    O18     O    0.84209   0.54552   0.00353   1.000
    Zr19    Zr   0.00139   0.00142   0.50013   1.000
    O20     O    0.15796   0.99858   0.45583   1.000
    O21     O    0.00439   0.84489   0.54427   1.000
    O22     O    0.84491   0.00411   0.54442   1.000
    O23     O    0.99730   0.15804   0.45601   1.000
loop_
    _geom_bond_atom_site_label_1
    _geom_bond_atom_site_label_2
    _geom_bond_distance
    _geom_bond_site_symmetry_2
    _ccdc_geom_bond_type
    N1     O2        1.63742      .   S
    N0     O2        2.72891  1_565   S
    N4     O5        1.63776      .   S
    N3     O5        2.72950  1_554   S
    N7     O8        1.63748      .   S
    N6     O8        2.72931  1_655   S
    Zr9    O10       2.18109  1_546   S
    N0     O10       3.24816      .   S
    Zr9    O11       2.18403      .   S
    N4     O11       3.25140      .   S
    Zr9    O12       2.18217  1_546   S
    N3     O12       3.24964      .   S
    Zr9    O13       2.18489      .   S
    N1     O13       3.25265      .   S
    Zr14   O15       2.18415  1_654   S
    N7     O15       3.25233      .   S
    Zr14   O16       2.18277      .   S
    N6     O16       3.24986      .   S
    Zr14   O17       2.18294  1_654   S
    N4     O17       3.25054      .   S
    Zr14   O18       2.18391      .   S
    N3     O18       3.25152      .   S
    Zr19   O20       2.18338  1_545   S
    N0     O20       3.25074      .   S
    Zr19   O21       2.18244  1_545   S
    N7     O21       3.24994      .   S
    Zr19   O22       2.18231  1_455   S
    N1     O22       3.24997      .   S
    Zr19   O23       2.18356  1_455   S
    N6     O23       3.25093      .   S
