# CIF file generated by openbabel 2.4.90, see http://openbabel.sf.net
data_I
_chemical_name_common ''
_cell_length_a 13.59
_cell_length_b 13.596
_cell_length_c 13.604
_cell_angle_alpha 87.248
_cell_angle_beta 87.32
_cell_angle_gamma 87.467
_space_group_name_H-M_alt 'P 1'
_space_group_name_Hall 'P 1'
loop_
    _symmetry_equiv_pos_as_xyz
    x,y,z
loop_
    _atom_site_label
    _atom_site_type_symbol
    _atom_site_fract_x
    _atom_site_fract_y
    _atom_site_fract_z
    _atom_site_occupancy
    C0      C    0.01836   0.58481   0.01976   1.000
    C1      C    0.02120   0.02109   0.58377   1.000
    C2      C    0.58387   0.02156   0.01927   1.000
    C3      C    0.41619   0.98191   0.98036   1.000
    C4      C    0.98182   0.98187   0.41636   1.000
    C5      C    0.97862   0.41719   0.98070   1.000
    C6      C    0.99835   0.43573   0.66500   1.000
    C7      C    0.66696   0.00000   0.43472   1.000
    C8      C    0.43294   0.66670   0.00000   1.000
    C9      C    0.56739   0.00158   0.33475   1.000
    C10     C    0.00110   0.33630   0.56570   1.000
    C11     C    0.33305   0.56660   0.00071   1.000
    C12     C    0.99823   0.56756   0.33516   1.000
    C13     C    0.33642   0.00144   0.56545   1.000
    C14     C    0.56433   0.33679   0.99963   1.000
    C15     C    0.43540   0.00000   0.66476   1.000
    C16     C    0.00000   0.66670   0.43445   1.000
    C17     C    0.66342   0.43605   0.00000   1.000
    C18     C    0.01643   0.73755   0.73655   1.000
    C19     C    0.73750   0.01576   0.73694   1.000
    C20     C    0.73545   0.73806   0.01589   1.000
    C21     C    0.26494   0.98769   0.26343   1.000
    C22     C    0.98340   0.26539   0.26399   1.000
    C23     C    0.26231   0.26424   0.98370   1.000
    C24     C    0.00645   0.55148   0.81692   1.000
    C25     C    0.00230   0.51228   0.63890   1.000
    C26     C    0.00758   0.58275   0.70996   1.000
    C27     C    0.81834   0.00729   0.55105   1.000
    C28     C    0.64043   0.00343   0.51120   1.000
    C29     C    0.71130   0.00800   0.58203   1.000
    C30     C    0.54956   0.81840   0.00802   1.000
    C31     C    0.50951   0.64041   0.00363   1.000
    C32     C    0.58038   0.71143   0.00850   1.000
    C33     C    0.45076   0.99532   0.18316   1.000
    C34     C    0.49075   0.99883   0.36107   1.000
    C35     C    0.41997   0.99463   0.29011   1.000
    C36     C    0.99317   0.18480   0.44968   1.000
    C37     C    0.99726   0.36275   0.48925   1.000
    C38     C    0.99202   0.29182   0.41870   1.000
    C39     C    0.18156   0.44992   0.99306   1.000
    C40     C    0.35952   0.49014   0.99720   1.000
    C41     C    0.28862   0.41920   0.99216   1.000
    C42     C    0.99117   0.45136   0.18364   1.000
    C43     C    0.99581   0.49089   0.36149   1.000
    C44     C    0.99085   0.42030   0.29056   1.000
    C45     C    0.18473   0.99534   0.44948   1.000
    C46     C    0.36277   0.99879   0.48890   1.000
    C47     C    0.29167   0.99461   0.41830   1.000
    C48     C    0.44878   0.18475   0.99214   1.000
    C49     C    0.48769   0.36283   0.99671   1.000
    C50     C    0.41723   0.29152   0.99165   1.000
    C51     C    0.55104   0.00786   0.81670   1.000
    C52     C    0.51210   0.00372   0.63867   1.000
    C53     C    0.58256   0.00827   0.70988   1.000
    C54     C    0.00899   0.81818   0.55044   1.000
    C55     C    0.00403   0.64029   0.51105   1.000
    C56     C    0.00905   0.71119   0.58166   1.000
    C57     C    0.81534   0.55190   0.00730   1.000
    C58     C    0.63721   0.51259   0.00323   1.000
    C59     C    0.70844   0.58317   0.00807   1.000
    C60     C    0.00178   0.53927   0.53790   1.000
    C61     C    0.01211   0.68266   0.68150   1.000
    C62     C    0.53927   0.00261   0.53775   1.000
    C63     C    0.68263   0.01172   0.68181   1.000
    C64     C    0.53619   0.53942   0.00211   1.000
    C65     C    0.68030   0.68306   0.01187   1.000
    C66     C    0.46385   0.99972   0.46200   1.000
    C67     C    0.31998   0.99132   0.31844   1.000
    C68     C    0.99789   0.46386   0.46243   1.000
    C69     C    0.98765   0.32032   0.31892   1.000
    C70     C    0.46064   0.46372   0.99833   1.000
    C71     C    0.31721   0.31944   0.98805   1.000
    C72     C    0.02450   0.61736   0.87680   1.000
    C73     C    0.98687   0.46195   0.84011   1.000
    C74     C    0.87834   0.02541   0.61688   1.000
    C75     C    0.84145   0.98791   0.46163   1.000
    C76     C    0.61622   0.87847   0.02391   1.000
    C77     C    0.45948   0.84138   0.99084   1.000
    C78     C    0.38399   0.97914   0.12348   1.000
    C79     C    0.54079   0.01273   0.15983   1.000
    C80     C    0.97523   0.12488   0.38375   1.000
    C81     C    0.01281   0.16168   0.53909   1.000
    C82     C    0.12148   0.38389   0.97522   1.000
    C83     C    0.15856   0.53939   0.01246   1.000
    C84     C    0.97477   0.38485   0.12380   1.000
    C85     C    0.00874   0.54137   0.16047   1.000
    C86     C    0.12460   0.97919   0.38313   1.000
    C87     C    0.16186   0.01272   0.53943   1.000
    C88     C    0.38300   0.12448   0.97415   1.000
    C89     C    0.53838   0.16208   0.01146   1.000
    C90     C    0.61687   0.02630   0.87660   1.000
    C91     C    0.46148   0.98838   0.83980   1.000
    C92     C    0.02530   0.87824   0.61675   1.000
    C93     C    0.99171   0.84123   0.46044   1.000
    C94     C    0.87564   0.61815   0.02370   1.000
    C95     C    0.83804   0.46198   0.98952   1.000
    O96     O    0.65032   0.47432   0.00161   1.000
    O97     O    0.47122   0.65355   0.00182   1.000
    O98     O    0.34628   0.52837   0.99896   1.000
    O99     O    0.58670   0.52600   0.00267   1.000
    O100    O    0.52285   0.58991   0.00287   1.000
    O101    O    0.49841   0.50157   0.00022   1.000
    O102    O    0.67283   0.54788   0.00565   1.000
    O103    O    0.54494   0.67592   0.00607   1.000
    O104    O    0.76189   0.56754   0.00769   1.000
    O105    O    0.84549   0.58503   0.01550   1.000
    O106    O    0.82669   0.50694   0.99841   1.000
    O107    O    0.56497   0.76491   0.00826   1.000
    O108    O    0.58289   0.84843   0.01597   1.000
    O109    O    0.50452   0.82989   0.99943   1.000
    O110    O    0.69437   0.63312   0.00997   1.000
    O111    O    0.63034   0.69724   0.01019   1.000
    O112    O    0.56113   0.09182   0.01537   1.000
    O113    O    0.49358   0.17341   0.00180   1.000
    O114    O    0.70787   0.71056   0.01388   1.000
    O115    O    0.08846   0.56210   0.01611   1.000
    O116    O    0.17006   0.49466   0.00276   1.000
    O117    O    0.60005   0.95001   0.02159   1.000
    O118    O    0.56233   0.01715   0.08955   1.000
    O119    O    0.60037   0.02393   0.94794   1.000
    O120    O    0.94700   0.60148   0.02173   1.000
    O121    O    0.01355   0.56309   0.09012   1.000
    O122    O    0.02143   0.60108   0.94828   1.000
    O123    O    0.41737   0.98723   0.15332   1.000
    O124    O    0.40009   0.98053   0.05192   1.000
    O125    O    0.98297   0.41811   0.15372   1.000
    O126    O    0.97670   0.40102   0.05225   1.000
    O127    O    0.49577   0.00403   0.17150   1.000
    O128    O    0.99995   0.49637   0.17206   1.000
    O129    O    0.43536   0.99497   0.23664   1.000
    O130    O    0.99101   0.43583   0.23710   1.000
    O131    O    0.29246   0.98951   0.29093   1.000
    O132    O    0.98552   0.29286   0.29146   1.000
    O133    O    0.36997   0.99298   0.30428   1.000
    O134    O    0.45536   0.99673   0.32559   1.000
    O135    O    0.98925   0.37031   0.30474   1.000
    O136    O    0.99333   0.45560   0.32603   1.000
    O137    O    0.30582   0.99297   0.36837   1.000
    O138    O    0.98983   0.30607   0.36881   1.000
    O139    O    0.52907   0.00020   0.34791   1.000
    O140    O    0.99702   0.52923   0.34833   1.000
    O141    O    0.47730   0.99928   0.41154   1.000
    O142    O    0.99685   0.47738   0.41196   1.000
    O143    O    0.05321   0.98053   0.39975   1.000
    O144    O    0.15466   0.98726   0.41631   1.000
    O145    O    0.97852   0.05338   0.40006   1.000
    O146    O    0.98420   0.15484   0.41672   1.000
    O147    O    0.98676   0.91155   0.43840   1.000
    O148    O    0.91163   0.98489   0.43900   1.000
    O149    O    0.23820   0.99498   0.43389   1.000
    O150    O    0.32722   0.99670   0.45360   1.000
    O151    O    0.99260   0.23831   0.43419   1.000
    O152    O    0.99464   0.32728   0.45398   1.000
    O153    O    0.00202   0.65349   0.47275   1.000
    O154    O    0.65369   0.00171   0.47296   1.000
    O155    O    0.17329   0.00403   0.49446   1.000
    O156    O    0.00299   0.17324   0.49439   1.000
    O157    O    0.00035   0.82970   0.50544   1.000
    O158    O    0.82990   0.99760   0.50634   1.000
    O159    O    0.41331   0.99926   0.47545   1.000
    O160    O    0.50156   0.00117   0.49988   1.000
    O161    O    0.99757   0.41330   0.47584   1.000
    O162    O    0.99983   0.50156   0.50017   1.000
    O163    O    0.34960   0.00012   0.52718   1.000
    O164    O    0.99918   0.34952   0.52748   1.000
    O165    O    0.00291   0.58978   0.52448   1.000
    O166    O    0.00654   0.67574   0.54636   1.000
    O167    O    0.58985   0.00302   0.52448   1.000
    O168    O    0.67586   0.00571   0.54662   1.000
    O169    O    0.52569   0.00317   0.58821   1.000
    O170    O    0.00204   0.52577   0.58840   1.000
    O171    O    0.01700   0.09138   0.56143   1.000
    O172    O    0.09153   0.01690   0.56160   1.000
    O173    O    0.00902   0.76468   0.56605   1.000
    O174    O    0.01714   0.84821   0.58360   1.000
    O175    O    0.76482   0.00764   0.56654   1.000
    O176    O    0.84834   0.01635   0.58397   1.000
    O177    O    0.01058   0.69693   0.63158   1.000
    O178    O    0.69697   0.00986   0.63192   1.000
    O179    O    0.02325   0.94966   0.60026   1.000
    O180    O    0.94977   0.02325   0.60033   1.000
    O181    O    0.47375   0.00186   0.65172   1.000
    O182    O    0.54733   0.00600   0.67428   1.000
    O183    O    0.00033   0.47401   0.65195   1.000
    O184    O    0.00494   0.54751   0.67443   1.000
    O185    O    0.00985   0.63270   0.69573   1.000
    O186    O    0.01427   0.71011   0.70903   1.000
    O187    O    0.63260   0.01000   0.69585   1.000
    O188    O    0.71007   0.01374   0.70938   1.000
    O189    O    0.56680   0.00807   0.76329   1.000
    O190    O    0.00702   0.56711   0.76344   1.000
    O191    O    0.50626   0.99812   0.82825   1.000
    O192    O    0.58396   0.01708   0.84665   1.000
    O193    O    0.99666   0.50671   0.82852   1.000
    O194    O    0.01548   0.58442   0.84686   1.000
    O195    O    0.43883   0.98515   0.91008   1.000
    O196    O    0.98274   0.43957   0.91041   1.000
    O197    O    0.39960   0.05320   0.97725   1.000
    O198    O    0.41589   0.15461   0.98315   1.000
    O199    O    0.05005   0.40054   0.97796   1.000
    O200    O    0.15152   0.41691   0.98414   1.000
    O201    O    0.43783   0.91165   0.98560   1.000
    O202    O    0.90833   0.43959   0.98511   1.000
    O203    O    0.28976   0.29184   0.98588   1.000
    O204    O    0.36722   0.30548   0.98985   1.000
    O205    O    0.30291   0.36932   0.99011   1.000
    O206    O    0.43301   0.23813   0.99190   1.000
    O207    O    0.45246   0.32717   0.99418   1.000
    O208    O    0.23509   0.43456   0.99261   1.000
    O209    O    0.32407   0.45467   0.99468   1.000
    O210    O    0.47417   0.41327   0.99752   1.000
    O211    O    0.52601   0.34981   0.99817   1.000
    O212    O    0.41008   0.47693   0.99777   1.000
    O213    O    0.99849   0.50100   0.00023   1.000
    O214    O    0.00151   0.00148   0.50006   1.000
    O215    O    0.50003   0.00173   0.99982   1.000
loop_
    _geom_bond_atom_site_label_1
    _geom_bond_atom_site_label_2
    _geom_bond_distance
    _geom_bond_site_symmetry_2
    _ccdc_geom_bond_type
    C17    O96       0.54359      .   S
    C58    O96       0.54359      .   S
    C8     O97       0.54391      .   S
    C31    O97       0.54391      .   S
    C11    O98       0.54368  1_554   S
    C40    O98       0.54368      .   S
    C64    O99       0.70269      .   S
    C58    O99       0.70269      .   S
    C64    O100      0.70275      .   S
    C31    O100      0.70275      .   S
    C64    O101      0.74489      .   S
    C70    O101      0.74489  1_556   S
    C58    O102      0.69935      .   S
    C59    O102      0.69935      .   S
    C31    O103      0.69972      .   S
    C32    O103      0.69972      .   S
    C57    O104      0.74761      .   S
    C59    O104      0.74761      .   S
    C57    O105      0.63917      .   S
    C94    O105      0.63917      .   S
    C57    O106      0.63961  1_554   S
    C95    O106      0.63961      .   S
    C30    O107      0.74771      .   S
    C32    O107      0.74771      .   S
    C30    O108      0.63938      .   S
    C76    O108      0.63938      .   S
    C30    O109      0.63966  1_554   S
    C77    O109      0.63966      .   S
    C59    O110      0.69865      .   S
    C65    O110      0.69865      .   S
    C32    O111      0.69867      .   S
    C65    O111      0.69867      .   S
    C89    O112      0.99071      .   S
    C2     O112      0.99071      .   S
    C89    O113      0.63946      .   S
    C48    O113      0.63946  1_556   S
    C65    O114      0.54342      .   S
    C20    O114      0.54342      .   S
    C83    O115      0.98816      .   S
    C0     O115      0.98816      .   S
    C83    O116      0.63960      .   S
    C39    O116      0.63960  1_556   S
    C2     O117      0.98708  1_545   S
    C76    O117      0.98708      .   S
    C2     O118      0.98655      .   S
    C79    O118      0.98655      .   S
    C2     O119      0.98507  1_554   S
    C90    O119      0.98507      .   S
    C0     O120      0.98551  1_455   S
    C94    O120      0.98551      .   S
    C0     O121      0.98805      .   S
    C85    O121      0.98805      .   S
    C0     O122      0.98623  1_554   S
    C72    O122      0.98623      .   S
    C78    O123      0.63929      .   S
    C33    O123      0.63929      .   S
    C78    O124      0.98723      .   S
    C3     O124      0.98723  1_556   S
    C84    O125      0.63946      .   S
    C42    O125      0.63946      .   S
    C84    O126      0.98694      .   S
    C5     O126      0.98694  1_556   S
    C79    O127      0.63947      .   S
    C33    O127      0.63947  1_565   S
    C85    O128      0.63944  1_455   S
    C42    O128      0.63944      .   S
    C33    O129      0.74736      .   S
    C35    O129      0.74736      .   S
    C42    O130      0.74744      .   S
    C44    O130      0.74744      .   S
    C21    O131      0.54338      .   S
    C67    O131      0.54338      .   S
    C22    O132      0.54337      .   S
    C69    O132      0.54337      .   S
    C35    O133      0.69851      .   S
    C67    O133      0.69851      .   S
    C35    O134      0.69956      .   S
    C34    O134      0.69956      .   S
    C44    O135      0.69850      .   S
    C69    O135      0.69850      .   S
    C44    O136      0.69958      .   S
    C43    O136      0.69958      .   S
    C67    O137      0.69839      .   S
    C47    O137      0.69839      .   S
    C69    O138      0.69844      .   S
    C38    O138      0.69844      .   S
    C9     O139      0.54354      .   S
    C34    O139      0.54354  1_565   S
    C12    O140      0.54357      .   S
    C43    O140      0.54357      .   S
    C34    O141      0.70237      .   S
    C66    O141      0.70237      .   S
    C43    O142      0.70282      .   S
    C68    O142      0.70282      .   S
    C86    O143      0.98539      .   S
    C4     O143      0.98539  1_655   S
    C86    O144      0.63928      .   S
    C45    O144      0.63928      .   S
    C80    O145      0.98625      .   S
    C4     O145      0.98625  1_565   S
    C80    O146      0.63947      .   S
    C36    O146      0.63947      .   S
    C4     O147      0.98856      .   S
    C93    O147      0.98856      .   S
    C4     O148      0.98819      .   S
    C75    O148      0.98819      .   S
    C47    O149      0.74725      .   S
    C45    O149      0.74725      .   S
    C47    O150      0.69931      .   S
    C46    O150      0.69931      .   S
    C38    O151      0.74746      .   S
    C36    O151      0.74746      .   S
    C38    O152      0.69955      .   S
    C37    O152      0.69955      .   S
    C16    O153      0.54442      .   S
    C55    O153      0.54442      .   S
    C7     O154      0.54378      .   S
    C28    O154      0.54378      .   S
    C45    O155      0.63943  1_565   S
    C87    O155      0.63943      .   S
    C36    O156      0.63947  1_655   S
    C81    O156      0.63947      .   S
    C93    O157      0.63953  1_655   S
    C54    O157      0.63953      .   S
    C75    O158      0.63945      .   S
    C27    O158      0.63945  1_545   S
    C66    O159      0.70275      .   S
    C46    O159      0.70275      .   S
    C66    O160      0.74503  1_565   S
    C62    O160      0.74503      .   S
    C68    O161      0.70278      .   S
    C37    O161      0.70278      .   S
    C68    O162      0.74482      .   S
    C60    O162      0.74482  1_455   S
    C46    O163      0.54350  1_565   S
    C13    O163      0.54350      .   S
    C37    O164      0.54341      .   S
    C10    O164      0.54341  1_455   S
    C55    O165      0.70271      .   S
    C60    O165      0.70271      .   S
    C55    O166      0.69956      .   S
    C56    O166      0.69956      .   S
    C28    O167      0.70264      .   S
    C62    O167      0.70264      .   S
    C28    O168      0.69960      .   S
    C29    O168      0.69960      .   S
    C62    O169      0.70278      .   S
    C52    O169      0.70278      .   S
    C60    O170      0.70264      .   S
    C25    O170      0.70264      .   S
    C81    O171      0.98892      .   S
    C1     O171      0.98892      .   S
    C87    O172      0.98872      .   S
    C1     O172      0.98872      .   S
    C54    O173      0.74780      .   S
    C56    O173      0.74780      .   S
    C54    O174      0.63935      .   S
    C92    O174      0.63935      .   S
    C27    O175      0.74762      .   S
    C29    O175      0.74762      .   S
    C27    O176      0.63930      .   S
    C74    O176      0.63930      .   S
    C56    O177      0.69825      .   S
    C61    O177      0.69825      .   S
    C29    O178      0.69861      .   S
    C63    O178      0.69861      .   S
    C1     O179      0.98561  1_545   S
    C92    O179      0.98561      .   S
    C1     O180      0.98569  1_455   S
    C74    O180      0.98569      .   S
    C52    O181      0.54394      .   S
    C15    O181      0.54394      .   S
    C52    O182      0.69942      .   S
    C53    O182      0.69942      .   S
    C25    O183      0.54311      .   S
    C6     O183      0.54311  1_655   S
    C25    O184      0.69982      .   S
    C26    O184      0.69982      .   S
    C61    O185      0.69889      .   S
    C26    O185      0.69889      .   S
    C61    O186      0.54379      .   S
    C18    O186      0.54379      .   S
    C63    O187      0.69877      .   S
    C53    O187      0.69877      .   S
    C63    O188      0.54344      .   S
    C19    O188      0.54344      .   S
    C53    O189      0.74773      .   S
    C51    O189      0.74773      .   S
    C26    O190      0.74789      .   S
    C24    O190      0.74789      .   S
    C51    O191      0.63938  1_545   S
    C91    O191      0.63938      .   S
    C51    O192      0.63933      .   S
    C90    O192      0.63933      .   S
    C24    O193      0.63948  1_455   S
    C73    O193      0.63948      .   S
    C24    O194      0.63918      .   S
    C72    O194      0.63918      .   S
    C91    O195      0.99014      .   S
    C3     O195      0.99014      .   S
    C73    O196      0.98933      .   S
    C5     O196      0.98933      .   S
    C88    O197      0.98469      .   S
    C3     O197      0.98469  1_565   S
    C88    O198      0.63930      .   S
    C48    O198      0.63930      .   S
    C82    O199      0.98642      .   S
    C5     O199      0.98642  1_655   S
    C82    O200      0.63948      .   S
    C39    O200      0.63948      .   S
    C3     O201      0.98735      .   S
    C77    O201      0.98735      .   S
    C5     O202      0.98967      .   S
    C95    O202      0.98967      .   S
    C23    O203      0.54345      .   S
    C71    O203      0.54345      .   S
    C71    O204      0.69873      .   S
    C50    O204      0.69873      .   S
    C71    O205      0.69866      .   S
    C41    O205      0.69866      .   S
    C50    O206      0.74759      .   S
    C48    O206      0.74759      .   S
    C50    O207      0.69936      .   S
    C49    O207      0.69936      .   S
    C41    O208      0.74775      .   S
    C39    O208      0.74775      .   S
    C41    O209      0.69969      .   S
    C40    O209      0.69969      .   S
    C49    O210      0.70267      .   S
    C70    O210      0.70267      .   S
    C49    O211      0.54348      .   S
    C14    O211      0.54348      .   S
    C40    O212      0.70274      .   S
    C70    O212      0.70274      .   S
    C0     O213      1.22671  1_455   S
    C5     O213      1.22671  1_556   S
    C1     O214      1.22610      .   S
    C4     O214      1.22610  1_665   S
    C2     O215      1.22602  1_554   S
    C3     O215      1.22602  1_565   S
