# CIF file generated by openbabel 2.4.90, see http://openbabel.sf.net
data_I
_chemical_name_common ''
_cell_length_a 15.583
_cell_length_b 15.627
_cell_length_c 15.672
_cell_angle_alpha 68.747
_cell_angle_beta 74.069
_cell_angle_gamma 111.034
_space_group_name_H-M_alt 'P 1'
_space_group_name_Hall 'P 1'
loop_
    _symmetry_equiv_pos_as_xyz
    x,y,z
loop_
    _atom_site_label
    _atom_site_type_symbol
    _atom_site_fract_x
    _atom_site_fract_y
    _atom_site_fract_z
    _atom_site_occupancy
    Zr0     Zr   0.56184   0.80873   0.10256   1.000
    Zr1     Zr   0.24391   0.93637   0.06383   1.000
    Zr2     Zr   0.58928   0.69135   0.24811   1.000
    Zr3     Zr   0.50132   0.56561   0.69039   1.000
    Zr4     Zr   0.25164   0.16488   0.93712   1.000
    Zr5     Zr   0.80913   0.81139   0.25640   1.000
    Zr6     Zr   0.39644   0.33690   0.90998   1.000
    Zr7     Zr   0.43644   0.69292   0.99779   1.000
    Zr8     Zr   0.43817   0.19130   0.89744   1.000
    Zr9     Zr   0.75611   0.06366   0.93610   1.000
    Zr10    Zr   0.41074   0.30867   0.75189   1.000
    Zr11    Zr   0.49869   0.43441   0.30960   1.000
    Zr12    Zr   0.74837   0.83514   0.06287   1.000
    Zr13    Zr   0.19088   0.18864   0.74356   1.000
    Zr14    Zr   0.60355   0.66313   0.09002   1.000
    Zr15    Zr   0.56357   0.30711   0.00000   1.000
    Zr16    Zr   0.27348   0.71366   0.96774   1.000
    Zr17    Zr   0.28189   0.84059   0.91268   1.000
    Zr18    Zr   0.18033   0.73598   0.03770   1.000
    Zr19    Zr   0.49621   0.95561   0.16062   1.000
    Zr20    Zr   0.36065   0.89835   0.23646   1.000
    Zr21    Zr   0.42989   0.02105   0.11726   1.000
    Zr22    Zr   0.81976   0.78784   0.44000   1.000
    Zr23    Zr   0.74806   0.66125   0.55799   1.000
    Zr24    Zr   0.72737   0.76655   0.55419   1.000
    Zr25    Zr   0.38436   0.54555   0.45878   1.000
    Zr26    Zr   0.36472   0.60187   0.53765   1.000
    Zr27    Zr   0.36298   0.47952   0.58946   1.000
    Zr28    Zr   0.06195   0.74549   0.22793   1.000
    Zr29    Zr   0.94386   0.69795   0.21853   1.000
    Zr30    Zr   0.94623   0.72323   0.31950   1.000
    Zr31    Zr   0.04065   0.15995   0.00408   1.000
    Zr32    Zr   0.96005   0.09906   0.13884   1.000
    Zr33    Zr   0.90977   0.05121   0.06653   1.000
    Zr34    Zr   0.53187   0.75882   0.68030   1.000
    Zr35    Zr   0.58851   0.80507   0.75142   1.000
    Zr36    Zr   0.46288   0.78272   0.77227   1.000
    Zr37    Zr   0.33872   0.34455   0.11460   1.000
    Zr38    Zr   0.26283   0.40473   0.13257   1.000
    Zr39    Zr   0.38271   0.45405   0.13617   1.000
    Zr40    Zr   0.72653   0.28637   0.00000   1.000
    Zr41    Zr   0.71813   0.15944   0.08732   1.000
    Zr42    Zr   0.81968   0.26405   0.96227   1.000
    Zr43    Zr   0.50380   0.04442   0.83938   1.000
    Zr44    Zr   0.63936   0.10168   0.76354   1.000
    Zr45    Zr   0.57012   0.97898   0.88274   1.000
    Zr46    Zr   0.18025   0.21219   0.56000   1.000
    Zr47    Zr   0.25195   0.33877   0.44201   1.000
    Zr48    Zr   0.27264   0.23347   0.44582   1.000
    Zr49    Zr   0.61565   0.45448   0.54122   1.000
    Zr50    Zr   0.63530   0.39817   0.46235   1.000
    Zr51    Zr   0.63703   0.52051   0.41054   1.000
    Zr52    Zr   0.93806   0.25454   0.77200   1.000
    Zr53    Zr   0.05616   0.30208   0.78140   1.000
    Zr54    Zr   0.05378   0.27680   0.68051   1.000
    Zr55    Zr   0.95936   0.84008   0.99590   1.000
    Zr56    Zr   0.03995   0.90097   0.86110   1.000
    Zr57    Zr   0.09024   0.94882   0.93347   1.000
    Zr58    Zr   0.46815   0.24121   0.31965   1.000
    Zr59    Zr   0.41151   0.19496   0.24858   1.000
    Zr60    Zr   0.53713   0.21731   0.22770   1.000
    Zr61    Zr   0.66129   0.65549   0.88540   1.000
    Zr62    Zr   0.73718   0.59531   0.86743   1.000
    Zr63    Zr   0.61731   0.54598   0.86383   1.000
    Zr64    Zr   0.40160   0.88397   0.10313   1.000
    Zr65    Zr   0.32958   0.80807   0.03054   1.000
    Zr66    Zr   0.26265   0.77245   0.98460   1.000
    Zr67    Zr   0.42387   0.94353   0.15693   1.000
    Zr68    Zr   0.51357   0.61731   0.48180   1.000
    Zr69    Zr   0.66233   0.69380   0.47784   1.000
    Zr70    Zr   0.74408   0.72949   0.50903   1.000
    Zr71    Zr   0.40007   0.55725   0.51891   1.000
    Zr72    Zr   0.01757   0.00759   0.09770   1.000
    Zr73    Zr   0.02253   0.86355   0.17040   1.000
    Zr74    Zr   0.99215   0.75133   0.23700   1.000
    Zr75    Zr   0.98004   0.08382   0.07495   1.000
    Zr76    Zr   0.39646   0.49622   0.98542   1.000
    Zr77    Zr   0.46940   0.64036   0.83714   1.000
    Zr78    Zr   0.51576   0.75297   0.75560   1.000
    Zr79    Zr   0.34262   0.42055   0.09850   1.000
    Zr80    Zr   0.59841   0.11606   0.89687   1.000
    Zr81    Zr   0.67043   0.19196   0.96940   1.000
    Zr82    Zr   0.73736   0.22758   0.00000   1.000
    Zr83    Zr   0.57614   0.05650   0.84307   1.000
    Zr84    Zr   0.48644   0.38272   0.51818   1.000
    Zr85    Zr   0.33768   0.30623   0.52217   1.000
    Zr86    Zr   0.25593   0.27053   0.49097   1.000
    Zr87    Zr   0.59995   0.44278   0.48109   1.000
    Zr88    Zr   0.98244   0.99244   0.90220   1.000
    Zr89    Zr   0.97748   0.13648   0.82960   1.000
    Zr90    Zr   0.00786   0.24870   0.76221   1.000
    Zr91    Zr   0.01997   0.91621   0.92505   1.000
    Zr92    Zr   0.60355   0.50381   0.00000   1.000
    Zr93    Zr   0.53061   0.35967   0.16286   1.000
    Zr94    Zr   0.48425   0.24705   0.24440   1.000
    Zr95    Zr   0.65739   0.57948   0.90148   1.000
    Zr96    Zr   0.41316   0.58052   0.25087   1.000
    Zr97    Zr   0.67002   0.92013   0.16730   1.000
    Zr98    Zr   0.33281   0.16513   0.08590   1.000
    Zr99    Zr   0.24872   0.33781   0.82889   1.000
    Zr100   Zr   0.58685   0.41951   0.74914   1.000
    Zr101   Zr   0.32999   0.07990   0.83270   1.000
    Zr102   Zr   0.66720   0.83490   0.91410   1.000
    Zr103   Zr   0.75130   0.66222   0.17111   1.000
    Zr104   Zr   0.44668   0.82952   0.08526   1.000
    Zr105   Zr   0.32851   0.87344   0.06890   1.000
    Zr106   Zr   0.39987   0.78029   0.03957   1.000
    Zr107   Zr   0.58570   0.67200   0.38293   1.000
    Zr108   Zr   0.55860   0.62807   0.54390   1.000
    Zr109   Zr   0.68078   0.72168   0.38042   1.000
    Zr110   Zr   0.11681   0.03414   0.05260   1.000
    Zr111   Zr   0.95584   0.90102   0.17120   1.000
    Zr112   Zr   0.11990   0.94203   0.09983   1.000
    Zr113   Zr   0.41413   0.46892   0.91356   1.000
    Zr114   Zr   0.43103   0.60327   0.94055   1.000
    Zr115   Zr   0.46003   0.56111   0.81877   1.000
    Zr116   Zr   0.55333   0.17051   0.91470   1.000
    Zr117   Zr   0.67150   0.12659   0.93106   1.000
    Zr118   Zr   0.60014   0.21974   0.96043   1.000
    Zr119   Zr   0.41431   0.32803   0.61707   1.000
    Zr120   Zr   0.44141   0.37196   0.45610   1.000
    Zr121   Zr   0.31923   0.27835   0.61958   1.000
    Zr122   Zr   0.88320   0.96589   0.94740   1.000
    Zr123   Zr   0.04417   0.09901   0.82881   1.000
    Zr124   Zr   0.88011   0.05800   0.90017   1.000
    Zr125   Zr   0.58588   0.53111   0.08644   1.000
    Zr126   Zr   0.56898   0.39676   0.05945   1.000
    Zr127   Zr   0.53998   0.43892   0.18123   1.000
    O128    O    0.73195   0.25698   0.00000   1.000
    O129    O    0.56628   0.35193   0.02973   1.000
    O130    O    0.58186   0.26342   0.98022   1.000
    O131    O    0.72775   0.19351   0.04366   1.000
    O132    O    0.77852   0.24581   0.98114   1.000
    O133    O    0.70390   0.20977   0.98470   1.000
    O134    O    0.58627   0.45028   0.02973   1.000
    O135    O    0.59471   0.51746   0.04322   1.000
    O136    O    0.63047   0.54165   0.95074   1.000
    O137    O    0.01034   0.12188   0.03952   1.000
    O138    O    0.36473   0.79418   0.03506   1.000
    O139    O    0.32905   0.84076   0.04972   1.000
    O140    O    0.29612   0.79026   0.00757   1.000
    O141    O    0.22149   0.75421   0.01115   1.000
    O142    O    0.42327   0.80491   0.06242   1.000
    O143    O    0.41816   0.73661   0.01868   1.000
    O144    O    0.06719   0.02086   0.07515   1.000
    O145    O    0.11835   0.98809   0.07622   1.000
    O146    O    0.18422   0.09951   0.99486   1.000
    O147    O    0.54980   0.37821   0.11116   1.000
    O148    O    0.67596   0.74913   0.07644   1.000
    O149    O    0.65510   0.82193   0.08272   1.000
    O150    O    0.74983   0.74868   0.11699   1.000
    O151    O    0.66882   0.76325   0.15549   1.000
    O152    O    0.81579   0.90052   0.00514   1.000
    O153    O    0.28621   0.90491   0.06637   1.000
    O154    O    0.18190   0.93920   0.08183   1.000
    O155    O    0.94490   0.06751   0.07074   1.000
    O156    O    0.36506   0.87870   0.08602   1.000
    O157    O    0.99881   0.04570   0.08633   1.000
    O158    O    0.97005   0.09144   0.10690   1.000
    O159    O    0.50426   0.81912   0.09391   1.000
    O160    O    0.42414   0.85674   0.09420   1.000
    O161    O    0.36463   0.25102   0.99794   1.000
    O162    O    0.59472   0.59712   0.08823   1.000
    O163    O    0.56293   0.48501   0.13384   1.000
    O164    O    0.58270   0.73593   0.09629   1.000
    O165    O    0.59642   0.67724   0.16907   1.000
    O166    O    0.63538   0.74901   0.00206   1.000
    O167    O    0.98671   0.95430   0.13445   1.000
    O168    O    0.34067   0.38255   0.10655   1.000
    O169    O    0.30273   0.41264   0.11553   1.000
    O170    O    0.36266   0.43730   0.11734   1.000
    O171    O    0.36954   0.45838   0.04196   1.000
    O172    O    0.07122   0.90279   0.13512   1.000
    O173    O    0.61593   0.86443   0.13493   1.000
    O174    O    0.57556   0.75004   0.17534   1.000
    O175    O    0.41273   0.91375   0.13003   1.000
    O176    O    0.42688   0.98229   0.13710   1.000
    O177    O    0.46004   0.94957   0.15877   1.000
    O178    O    0.39226   0.92094   0.19670   1.000
    O179    O    0.53530   0.39929   0.17205   1.000
    O180    O    0.50743   0.30336   0.20363   1.000
    O181    O    0.98919   0.88229   0.17080   1.000
    O182    O    0.00734   0.80744   0.20370   1.000
    O183    O    0.88249   0.85621   0.21380   1.000
    O184    O    0.51933   0.43667   0.24542   1.000
    O185    O    0.96800   0.72464   0.22777   1.000
    O186    O    0.51069   0.23218   0.23605   1.000
    O187    O    0.02705   0.74841   0.23247   1.000
    O188    O    0.96919   0.73728   0.27825   1.000
    O189    O    0.44788   0.22101   0.24649   1.000
    O190    O    0.47620   0.24413   0.28203   1.000
    O191    O    0.50122   0.63593   0.24949   1.000
    O192    O    0.58749   0.68168   0.31552   1.000
    O193    O    0.74496   0.76654   0.31841   1.000
    O194    O    0.47005   0.40319   0.38285   1.000
    O195    O    0.63324   0.69684   0.38167   1.000
    O196    O    0.67156   0.70774   0.42913   1.000
    O197    O    0.54964   0.64465   0.43237   1.000
    O198    O    0.61849   0.48165   0.44582   1.000
    O199    O    0.78192   0.75867   0.47452   1.000
    O200    O    0.25394   0.30465   0.46649   1.000
    O201    O    0.26429   0.25200   0.46840   1.000
    O202    O    0.46392   0.37734   0.48714   1.000
    O203    O    0.38954   0.33910   0.48914   1.000
    O204    O    0.39221   0.55140   0.48885   1.000
    O205    O    0.61762   0.42048   0.47172   1.000
    O206    O    0.70321   0.71164   0.49344   1.000
    O207    O    0.61047   0.66093   0.51087   1.000
    O208    O    0.54319   0.41275   0.49964   1.000
    O209    O    0.60780   0.44863   0.51116   1.000
    O210    O    0.45682   0.58728   0.50036   1.000
    O211    O    0.53609   0.62269   0.51285   1.000
    O212    O    0.29680   0.28838   0.50657   1.000
    O213    O    0.21809   0.24136   0.52549   1.000
    O214    O    0.73572   0.74802   0.53161   1.000
    O215    O    0.74607   0.69537   0.53351   1.000
    O216    O    0.45037   0.35538   0.56763   1.000
    O217    O    0.38239   0.57956   0.52828   1.000
    O218    O    0.38152   0.51838   0.55419   1.000
    O219    O    0.32845   0.29229   0.57088   1.000
    O220    O    0.52996   0.59684   0.61715   1.000
    O221    O    0.36677   0.30319   0.61833   1.000
    O222    O    0.41252   0.31835   0.68448   1.000
    O223    O    0.25506   0.23349   0.68157   1.000
    O224    O    0.52381   0.75590   0.71795   1.000
    O225    O    0.03082   0.26275   0.72136   1.000
    O226    O    0.48068   0.56336   0.75458   1.000
    O227    O    0.11752   0.14382   0.78619   1.000
    O228    O    0.49879   0.36409   0.75052   1.000
    O229    O    0.55213   0.77902   0.75351   1.000
    O230    O    0.42445   0.24999   0.82467   1.000
    O231    O    0.40359   0.32279   0.83094   1.000
    O232    O    0.33119   0.23678   0.84451   1.000
    O233    O    0.48932   0.76785   0.76394   1.000
    O234    O    0.49258   0.69667   0.79637   1.000
    O235    O    0.97296   0.25162   0.76711   1.000
    O236    O    0.03201   0.27539   0.77181   1.000
    O237    O    0.99267   0.19259   0.79591   1.000
    O238    O    0.60775   0.07909   0.80331   1.000
    O239    O    0.46471   0.60073   0.82796   1.000
    O240    O    0.43708   0.51501   0.86617   1.000
    O241    O    0.01082   0.11774   0.82921   1.000
    O242    O    0.01330   0.04572   0.86551   1.000
    O243    O    0.25018   0.25135   0.88301   1.000
    O244    O    0.92879   0.09724   0.86489   1.000
    O245    O    0.38408   0.13560   0.86507   1.000
    O246    O    0.45021   0.62182   0.88885   1.000
    O247    O    0.53997   0.05046   0.84123   1.000
    O248    O    0.57313   0.01774   0.86291   1.000
    O249    O    0.58727   0.08628   0.86997   1.000
    O250    O    0.02996   0.90859   0.89308   1.000
    O251    O    0.63735   0.56273   0.88266   1.000
    O252    O    0.69729   0.58740   0.88446   1.000
    O253    O    0.65934   0.61748   0.89344   1.000
    O254    O    0.57587   0.14328   0.90579   1.000
    O255    O    0.63495   0.12133   0.91397   1.000
    O256    O    0.41731   0.26410   0.90371   1.000
    O257    O    0.49575   0.18090   0.90607   1.000
    O258    O    0.34490   0.17809   0.91728   1.000
    O259    O    0.81811   0.06083   0.91814   1.000
    O260    O    0.88166   0.01194   0.92379   1.000
    O261    O    0.00120   0.95433   0.91363   1.000
    O262    O    0.93282   0.97917   0.92480   1.000
    O263    O    0.40529   0.40291   0.91177   1.000
    O264    O    0.32404   0.25089   0.92355   1.000
    O265    O    0.27227   0.80652   0.94864   1.000
    O266    O    0.40529   0.48257   0.94949   1.000
    O267    O    0.57673   0.19512   0.93757   1.000
    O268    O    0.05511   0.93252   0.92926   1.000
    O269    O    0.98967   0.87815   0.96048   1.000
    O270    O    0.71380   0.09513   0.93358   1.000
    O271    O    0.67096   0.15928   0.95023   1.000
    O272    O    0.41374   0.54975   0.96299   1.000
    O273    O    0.43374   0.64810   0.96917   1.000
    O274    O    0.63528   0.20585   0.96492   1.000
    O275    O    0.26806   0.74305   0.97617   1.000
loop_
    _geom_bond_atom_site_label_1
    _geom_bond_atom_site_label_2
    _geom_bond_distance
    _geom_bond_site_symmetry_2
    _ccdc_geom_bond_type
    Zr40   O128      0.49594      .   S
    Zr82   O128      0.49594      .   S
    Zr15   O129      0.96726      .   S
    Zr126  O129      0.96726      .   S
    Zr15   O130      0.94230  1_554   S
    Zr118  O130      0.94230      .   S
    Zr82   O131      0.62963      .   S
    Zr41   O131      0.62963      .   S
    Zr82   O132      0.53253  1_554   S
    Zr42   O132      0.53253      .   S
    Zr82   O133      0.64791  1_554   S
    Zr81   O133      0.64791      .   S
    Zr92   O134      0.69005      .   S
    Zr126  O134      0.69005      .   S
    Zr92   O135      0.77323      .   S
    Zr125  O135      0.77323      .   S
    Zr92   O136      0.65940  1_554   S
    Zr95   O136      0.65940      .   S
    Zr31   O137      0.54785      .   S
    Zr75   O137      0.54785  1_655   S
    Zr65   O138      0.66894      .   S
    Zr106  O138      0.66894      .   S
    Zr65   O139      0.68143      .   S
    Zr105  O139      0.68143      .   S
    Zr65   O140      0.74198      .   S
    Zr66   O140      0.74198  1_556   S
    Zr18   O141      0.54957      .   S
    Zr66   O141      0.54957  1_556   S
    Zr106  O142      0.69282      .   S
    Zr104  O142      0.69282      .   S
    Zr106  O143      0.95122      .   S
    Zr7    O143      0.95122  1_556   S
    Zr110  O144      0.66888      .   S
    Zr72   O144      0.66888      .   S
    Zr110  O145      0.69265  1_545   S
    Zr112  O145      0.69265      .   S
    Zr110  O146      1.00183  1_554   S
    Zr4    O146      1.00183      .   S
    Zr126  O147      0.68159      .   S
    Zr93   O147      0.68159      .   S
    Zr12   O148      1.30274      .   S
    Zr14   O148      1.30274      .   S
    Zr12   O149      1.31969      .   S
    Zr0    O149      1.31969      .   S
    Zr12   O150      1.32189      .   S
    Zr103  O150      1.32189      .   S
    Zr12   O151      1.31758      .   S
    Zr2    O151      1.31758      .   S
    Zr12   O152      1.00182      .   S
    Zr122  O152      1.00182  1_556   S
    Zr1    O153      0.95435      .   S
    Zr105  O153      0.95435      .   S
    Zr1    O154      0.95139      .   S
    Zr112  O154      0.95139      .   S
    Zr33   O155      0.54855      .   S
    Zr75   O155      0.54855      .   S
    Zr105  O156      0.68497      .   S
    Zr64   O156      0.68497      .   S
    Zr75   O157      0.74081      .   S
    Zr72   O157      0.74081  1_455   S
    Zr75   O158      0.55028      .   S
    Zr32   O158      0.55028      .   S
    Zr104  O159      1.00264      .   S
    Zr0    O159      1.00264      .   S
    Zr104  O160      0.66887      .   S
    Zr64   O160      0.66887      .   S
    Zr98   O161      1.32408  1_554   S
    Zr6    O161      1.32408      .   S
    Zr125  O162      1.00243      .   S
    Zr14   O162      1.00243      .   S
    Zr125  O163      0.69272      .   S
    Zr127  O163      0.69272      .   S
    Zr14   O164      1.31852      .   S
    Zr0    O164      1.31852      .   S
    Zr14   O165      1.31745      .   S
    Zr2    O165      1.31745      .   S
    Zr14   O166      1.32407      .   S
    Zr102  O166      1.32407  1_556   S
    Zr72   O167      0.68491  1_445   S
    Zr111  O167      0.68491      .   S
    Zr79   O168      0.54782      .   S
    Zr37   O168      0.54782      .   S
    Zr79   O169      0.55032      .   S
    Zr38   O169      0.55032      .   S
    Zr79   O170      0.54877      .   S
    Zr39   O170      0.54877      .   S
    Zr79   O171      0.74081      .   S
    Zr76   O171      0.74081  1_556   S
    Zr112  O172      0.66880      .   S
    Zr73   O172      0.66880      .   S
    Zr0    O173      1.32429      .   S
    Zr97   O173      1.32429      .   S
    Zr0    O174      1.30534      .   S
    Zr2    O174      1.30534      .   S
    Zr64   O175      0.74086      .   S
    Zr67   O175      0.74086      .   S
    Zr21   O176      0.54843  1_545   S
    Zr67   O176      0.54843      .   S
    Zr67   O177      0.54786      .   S
    Zr19   O177      0.54786      .   S
    Zr67   O178      0.55028      .   S
    Zr20   O178      0.55028      .   S
    Zr93   O179      0.66890      .   S
    Zr127  O179      0.66890      .   S
    Zr93   O180      0.74197      .   S
    Zr94   O180      0.74197      .   S
    Zr73   O181      0.68153  1_455   S
    Zr111  O181      0.68153      .   S
    Zr73   O182      0.74074      .   S
    Zr74   O182      0.74074  1_655   S
    Zr111  O183      0.95409      .   S
    Zr5    O183      0.95409      .   S
    Zr127  O184      0.95139      .   S
    Zr11   O184      0.95139      .   S
    Zr29   O185      0.54545      .   S
    Zr74   O185      0.54545      .   S
    Zr60   O186      0.54965      .   S
    Zr94   O186      0.54965      .   S
    Zr28   O187      0.54943      .   S
    Zr74   O187      0.54943  1_655   S
    Zr74   O188      0.55486      .   S
    Zr30   O188      0.55486      .   S
    Zr94   O189      0.55004      .   S
    Zr59   O189      0.55004      .   S
    Zr94   O190      0.54888      .   S
    Zr58   O190      0.54888      .   S
    Zr2    O191      1.32309      .   S
    Zr96   O191      1.32309      .   S
    Zr2    O192      1.00236      .   S
    Zr107  O192      1.00236      .   S
    Zr5    O193      0.95148      .   S
    Zr109  O193      0.95148      .   S
    Zr11   O194      0.95469      .   S
    Zr120  O194      0.95469      .   S
    Zr109  O195      0.69275      .   S
    Zr107  O195      0.69275      .   S
    Zr109  O196      0.66902      .   S
    Zr69   O196      0.66902      .   S
    Zr107  O197      0.66876      .   S
    Zr68   O197      0.66876      .   S
    Zr51   O198      0.54852      .   S
    Zr87   O198      0.54852      .   S
    Zr22   O199      0.54890      .   S
    Zr70   O199      0.54890      .   S
    Zr47   O200      0.55005      .   S
    Zr86   O200      0.55005      .   S
    Zr48   O201      0.54959      .   S
    Zr86   O201      0.54959      .   S
    Zr120  O202      0.68480      .   S
    Zr84   O202      0.68480      .   S
    Zr120  O203      0.68163      .   S
    Zr85   O203      0.68163      .   S
    Zr25   O204      0.54789      .   S
    Zr71   O204      0.54789      .   S
    Zr50   O205      0.55027      .   S
    Zr87   O205      0.55027      .   S
    Zr69   O206      0.74202      .   S
    Zr70   O206      0.74202      .   S
    Zr69   O207      0.68161      .   S
    Zr108  O207      0.68161      .   S
    Zr87   O208      0.74091      .   S
    Zr84   O208      0.74091      .   S
    Zr87   O209      0.54788      .   S
    Zr49   O209      0.54788      .   S
    Zr68   O210      0.74089      .   S
    Zr71   O210      0.74089      .   S
    Zr68   O211      0.68493      .   S
    Zr108  O211      0.68493      .   S
    Zr86   O212      0.74208      .   S
    Zr85   O212      0.74208      .   S
    Zr86   O213      0.54890      .   S
    Zr46   O213      0.54890      .   S
    Zr70   O214      0.54964      .   S
    Zr24   O214      0.54964      .   S
    Zr70   O215      0.55005      .   S
    Zr23   O215      0.55005      .   S
    Zr84   O216      0.66887      .   S
    Zr119  O216      0.66887      .   S
    Zr71   O217      0.55027      .   S
    Zr26   O217      0.55027      .   S
    Zr71   O218      0.54852      .   S
    Zr27   O218      0.54852      .   S
    Zr85   O219      0.66895      .   S
    Zr121  O219      0.66895      .   S
    Zr108  O220      0.95462      .   S
    Zr3    O220      0.95462      .   S
    Zr119  O221      0.69275      .   S
    Zr121  O221      0.69275      .   S
    Zr119  O222      1.00236      .   S
    Zr10   O222      1.00236      .   S
    Zr121  O223      0.95133      .   S
    Zr13   O223      0.95133      .   S
    Zr34   O224      0.54927      .   S
    Zr78   O224      0.54927      .   S
    Zr54   O225      0.54957      .   S
    Zr90   O225      0.54957      .   S
    Zr3    O226      0.95148      .   S
    Zr115  O226      0.95148      .   S
    Zr13   O227      0.95414      .   S
    Zr123  O227      0.95414      .   S
    Zr100  O228      1.32309      .   S
    Zr10   O228      1.32309      .   S
    Zr35   O229      0.55003      .   S
    Zr78   O229      0.55003      .   S
    Zr10   O230      1.30531      .   S
    Zr8    O230      1.30531      .   S
    Zr10   O231      1.31742      .   S
    Zr6    O231      1.31742      .   S
    Zr10   O232      1.31755      .   S
    Zr4    O232      1.31755      .   S
    Zr78   O233      0.54961      .   S
    Zr36   O233      0.54961      .   S
    Zr78   O234      0.74197      .   S
    Zr77   O234      0.74197      .   S
    Zr90   O235      0.54882  1_455   S
    Zr52   O235      0.54882      .   S
    Zr90   O236      0.54958      .   S
    Zr53   O236      0.54958      .   S
    Zr90   O237      0.74192  1_455   S
    Zr89   O237      0.74192      .   S
    Zr44   O238      0.55028      .   S
    Zr83   O238      0.55028      .   S
    Zr115  O239      0.66890      .   S
    Zr77   O239      0.66890      .   S
    Zr115  O240      0.69271      .   S
    Zr113  O240      0.69271      .   S
    Zr123  O241      0.68153      .   S
    Zr89   O241      0.68153  1_655   S
    Zr123  O242      0.68474      .   S
    Zr88   O242      0.68474  1_665   S
    Zr99   O243      1.32188      .   S
    Zr4    O243      1.32188      .   S
    Zr89   O244      0.66881      .   S
    Zr124  O244      0.66881      .   S
    Zr101  O245      1.32424      .   S
    Zr8    O245      1.32424      .   S
    Zr77   O246      0.68159      .   S
    Zr114  O246      0.68159      .   S
    Zr43   O247      0.54785      .   S
    Zr83   O247      0.54785      .   S
    Zr83   O248      0.54843      .   S
    Zr45   O248      0.54843  1_565   S
    Zr83   O249      0.74087      .   S
    Zr80   O249      0.74087      .   S
    Zr56   O250      0.55071      .   S
    Zr91   O250      0.55071      .   S
    Zr63   O251      0.54862      .   S
    Zr95   O251      0.54862      .   S
    Zr62   O252      0.55031      .   S
    Zr95   O252      0.55031      .   S
    Zr61   O253      0.54785      .   S
    Zr95   O253      0.54785      .   S
    Zr80   O254      0.66879      .   S
    Zr116  O254      0.66879      .   S
    Zr80   O255      0.68477      .   S
    Zr117  O255      0.68477      .   S
    Zr8    O256      1.31856      .   S
    Zr6    O256      1.31856      .   S
    Zr8    O257      1.00255      .   S
    Zr116  O257      1.00255      .   S
    Zr8    O258      1.31969      .   S
    Zr4    O258      1.31969      .   S
    Zr124  O259      0.95137      .   S
    Zr9    O259      0.95137      .   S
    Zr124  O260      0.69266      .   S
    Zr122  O260      0.69266  1_565   S
    Zr88   O261      0.74085  1_655   S
    Zr91   O261      0.74085      .   S
    Zr88   O262      0.66897      .   S
    Zr122  O262      0.66897      .   S
    Zr6    O263      1.00244      .   S
    Zr113  O263      1.00244      .   S
    Zr6    O264      1.30273      .   S
    Zr4    O264      1.30273      .   S
    Zr17   O265      0.54989      .   S
    Zr66   O265      0.54989      .   S
    Zr113  O266      0.66868      .   S
    Zr76   O266      0.66868      .   S
    Zr116  O267      0.69310      .   S
    Zr118  O267      0.69310      .   S
    Zr91   O268      0.54855      .   S
    Zr57   O268      0.54855      .   S
    Zr91   O269      0.54779  1_455   S
    Zr55   O269      0.54779      .   S
    Zr117  O270      0.95435      .   S
    Zr9    O270      0.95435      .   S
    Zr117  O271      0.68131      .   S
    Zr81   O271      0.68131      .   S
    Zr114  O272      0.68479      .   S
    Zr76   O272      0.68479      .   S
    Zr114  O273      0.95424      .   S
    Zr7    O273      0.95424      .   S
    Zr118  O274      0.66884      .   S
    Zr81   O274      0.66884      .   S
    Zr16   O275      0.54889      .   S
    Zr66   O275      0.54889      .   S
