# CIF file generated by openbabel 2.4.90, see http://openbabel.sf.net
data_I
_chemical_name_common ''
_cell_length_a 15.583
_cell_length_b 15.627
_cell_length_c 15.672
_cell_angle_alpha 68.747
_cell_angle_beta 74.069
_cell_angle_gamma 111.034
_space_group_name_H-M_alt 'P 1'
_space_group_name_Hall 'P 1'
loop_
    _symmetry_equiv_pos_as_xyz
    x,y,z
loop_
    _atom_site_label
    _atom_site_type_symbol
    _atom_site_fract_x
    _atom_site_fract_y
    _atom_site_fract_z
    _atom_site_occupancy
    C0      C    0.56184   0.80873   0.10256   1.000
    C1      C    0.24391   0.93637   0.06383   1.000
    C2      C    0.58928   0.69135   0.24811   1.000
    C3      C    0.50132   0.56561   0.69039   1.000
    C4      C    0.25164   0.16488   0.93712   1.000
    C5      C    0.80913   0.81139   0.25640   1.000
    C6      C    0.39644   0.33690   0.90998   1.000
    C7      C    0.43644   0.69292   0.99779   1.000
    C8      C    0.43817   0.19130   0.89744   1.000
    C9      C    0.75611   0.06366   0.93610   1.000
    C10     C    0.41074   0.30867   0.75189   1.000
    C11     C    0.49869   0.43441   0.30960   1.000
    C12     C    0.74837   0.83514   0.06287   1.000
    C13     C    0.19088   0.18864   0.74356   1.000
    C14     C    0.60355   0.66313   0.09002   1.000
    C15     C    0.56357   0.30711   0.00000   1.000
    C16     C    0.27348   0.71366   0.96774   1.000
    C17     C    0.28189   0.84059   0.91268   1.000
    C18     C    0.18033   0.73598   0.03770   1.000
    C19     C    0.49621   0.95561   0.16062   1.000
    C20     C    0.36065   0.89835   0.23646   1.000
    C21     C    0.42989   0.02105   0.11726   1.000
    C22     C    0.81976   0.78784   0.44000   1.000
    C23     C    0.74806   0.66125   0.55799   1.000
    C24     C    0.72737   0.76655   0.55419   1.000
    C25     C    0.38436   0.54555   0.45878   1.000
    C26     C    0.36472   0.60187   0.53765   1.000
    C27     C    0.36298   0.47952   0.58946   1.000
    C28     C    0.06195   0.74549   0.22793   1.000
    C29     C    0.94386   0.69795   0.21853   1.000
    C30     C    0.94623   0.72323   0.31950   1.000
    C31     C    0.04065   0.15995   0.00408   1.000
    C32     C    0.96005   0.09906   0.13884   1.000
    C33     C    0.90977   0.05121   0.06653   1.000
    C34     C    0.53187   0.75882   0.68030   1.000
    C35     C    0.58851   0.80507   0.75142   1.000
    C36     C    0.46288   0.78272   0.77227   1.000
    C37     C    0.33872   0.34455   0.11460   1.000
    C38     C    0.26283   0.40473   0.13257   1.000
    C39     C    0.38271   0.45405   0.13617   1.000
    C40     C    0.72653   0.28637   0.00000   1.000
    C41     C    0.71813   0.15944   0.08732   1.000
    C42     C    0.81968   0.26405   0.96227   1.000
    C43     C    0.50380   0.04442   0.83938   1.000
    C44     C    0.63936   0.10168   0.76354   1.000
    C45     C    0.57012   0.97898   0.88274   1.000
    C46     C    0.18025   0.21219   0.56000   1.000
    C47     C    0.25195   0.33877   0.44201   1.000
    C48     C    0.27264   0.23347   0.44582   1.000
    C49     C    0.61565   0.45448   0.54122   1.000
    C50     C    0.63530   0.39817   0.46235   1.000
    C51     C    0.63703   0.52051   0.41054   1.000
    C52     C    0.93806   0.25454   0.77200   1.000
    C53     C    0.05616   0.30208   0.78140   1.000
    C54     C    0.05378   0.27680   0.68051   1.000
    C55     C    0.95936   0.84008   0.99590   1.000
    C56     C    0.03995   0.90097   0.86110   1.000
    C57     C    0.09024   0.94882   0.93347   1.000
    C58     C    0.46815   0.24121   0.31965   1.000
    C59     C    0.41151   0.19496   0.24858   1.000
    C60     C    0.53713   0.21731   0.22770   1.000
    C61     C    0.66129   0.65549   0.88540   1.000
    C62     C    0.73718   0.59531   0.86743   1.000
    C63     C    0.61731   0.54598   0.86383   1.000
    C64     C    0.40160   0.88397   0.10313   1.000
    C65     C    0.32958   0.80807   0.03054   1.000
    C66     C    0.26265   0.77245   0.98460   1.000
    C67     C    0.42387   0.94353   0.15693   1.000
    C68     C    0.51357   0.61731   0.48180   1.000
    C69     C    0.66233   0.69380   0.47784   1.000
    C70     C    0.74408   0.72949   0.50903   1.000
    C71     C    0.40007   0.55725   0.51891   1.000
    C72     C    0.01757   0.00759   0.09770   1.000
    C73     C    0.02253   0.86355   0.17040   1.000
    C74     C    0.99215   0.75133   0.23700   1.000
    C75     C    0.98004   0.08382   0.07495   1.000
    C76     C    0.39646   0.49622   0.98542   1.000
    C77     C    0.46940   0.64036   0.83714   1.000
    C78     C    0.51576   0.75297   0.75560   1.000
    C79     C    0.34262   0.42055   0.09850   1.000
    C80     C    0.59841   0.11606   0.89687   1.000
    C81     C    0.67043   0.19196   0.96940   1.000
    C82     C    0.73736   0.22758   0.00000   1.000
    C83     C    0.57614   0.05650   0.84307   1.000
    C84     C    0.48644   0.38272   0.51818   1.000
    C85     C    0.33768   0.30623   0.52217   1.000
    C86     C    0.25593   0.27053   0.49097   1.000
    C87     C    0.59995   0.44278   0.48109   1.000
    C88     C    0.98244   0.99244   0.90220   1.000
    C89     C    0.97748   0.13648   0.82960   1.000
    C90     C    0.00786   0.24870   0.76221   1.000
    C91     C    0.01997   0.91621   0.92505   1.000
    C92     C    0.60355   0.50381   0.00000   1.000
    C93     C    0.53061   0.35967   0.16286   1.000
    C94     C    0.48425   0.24705   0.24440   1.000
    C95     C    0.65739   0.57948   0.90148   1.000
    C96     C    0.41316   0.58052   0.25087   1.000
    C97     C    0.67002   0.92013   0.16730   1.000
    C98     C    0.33281   0.16513   0.08590   1.000
    C99     C    0.24872   0.33781   0.82889   1.000
    C100    C    0.58685   0.41951   0.74914   1.000
    C101    C    0.32999   0.07990   0.83270   1.000
    C102    C    0.66720   0.83490   0.91410   1.000
    C103    C    0.75130   0.66222   0.17111   1.000
    C104    C    0.44668   0.82952   0.08526   1.000
    C105    C    0.32851   0.87344   0.06890   1.000
    C106    C    0.39987   0.78029   0.03957   1.000
    C107    C    0.58570   0.67200   0.38293   1.000
    C108    C    0.55860   0.62807   0.54390   1.000
    C109    C    0.68078   0.72168   0.38042   1.000
    C110    C    0.11681   0.03414   0.05260   1.000
    C111    C    0.95584   0.90102   0.17120   1.000
    C112    C    0.11990   0.94203   0.09983   1.000
    C113    C    0.41413   0.46892   0.91356   1.000
    C114    C    0.43103   0.60327   0.94055   1.000
    C115    C    0.46003   0.56111   0.81877   1.000
    C116    C    0.55333   0.17051   0.91470   1.000
    C117    C    0.67150   0.12659   0.93106   1.000
    C118    C    0.60014   0.21974   0.96043   1.000
    C119    C    0.41431   0.32803   0.61707   1.000
    C120    C    0.44141   0.37196   0.45610   1.000
    C121    C    0.31923   0.27835   0.61958   1.000
    C122    C    0.88320   0.96589   0.94740   1.000
    C123    C    0.04417   0.09901   0.82881   1.000
    C124    C    0.88011   0.05800   0.90017   1.000
    C125    C    0.58588   0.53111   0.08644   1.000
    C126    C    0.56898   0.39676   0.05945   1.000
    C127    C    0.53998   0.43892   0.18123   1.000
    O128    O    0.73195   0.25698   0.00000   1.000
    O129    O    0.56628   0.35193   0.02973   1.000
    O130    O    0.58186   0.26342   0.98022   1.000
    O131    O    0.72775   0.19351   0.04366   1.000
    O132    O    0.77852   0.24581   0.98114   1.000
    O133    O    0.70390   0.20977   0.98470   1.000
    O134    O    0.58627   0.45028   0.02973   1.000
    O135    O    0.59471   0.51746   0.04322   1.000
    O136    O    0.63047   0.54165   0.95074   1.000
    O137    O    0.01034   0.12188   0.03952   1.000
    O138    O    0.36473   0.79418   0.03506   1.000
    O139    O    0.32905   0.84076   0.04972   1.000
    O140    O    0.29612   0.79026   0.00757   1.000
    O141    O    0.22149   0.75421   0.01115   1.000
    O142    O    0.42327   0.80491   0.06242   1.000
    O143    O    0.41816   0.73661   0.01868   1.000
    O144    O    0.06719   0.02086   0.07515   1.000
    O145    O    0.11835   0.98809   0.07622   1.000
    O146    O    0.18422   0.09951   0.99486   1.000
    O147    O    0.54980   0.37821   0.11116   1.000
    O148    O    0.67596   0.74913   0.07644   1.000
    O149    O    0.65510   0.82193   0.08272   1.000
    O150    O    0.74983   0.74868   0.11699   1.000
    O151    O    0.66882   0.76325   0.15549   1.000
    O152    O    0.81579   0.90052   0.00514   1.000
    O153    O    0.28621   0.90491   0.06637   1.000
    O154    O    0.18190   0.93920   0.08183   1.000
    O155    O    0.94490   0.06751   0.07074   1.000
    O156    O    0.36506   0.87870   0.08602   1.000
    O157    O    0.99881   0.04570   0.08633   1.000
    O158    O    0.97005   0.09144   0.10690   1.000
    O159    O    0.50426   0.81912   0.09391   1.000
    O160    O    0.42414   0.85674   0.09420   1.000
    O161    O    0.36463   0.25102   0.99794   1.000
    O162    O    0.59472   0.59712   0.08823   1.000
    O163    O    0.56293   0.48501   0.13384   1.000
    O164    O    0.58270   0.73593   0.09629   1.000
    O165    O    0.59642   0.67724   0.16907   1.000
    O166    O    0.63538   0.74901   0.00206   1.000
    O167    O    0.98671   0.95430   0.13445   1.000
    O168    O    0.34067   0.38255   0.10655   1.000
    O169    O    0.30273   0.41264   0.11553   1.000
    O170    O    0.36266   0.43730   0.11734   1.000
    O171    O    0.36954   0.45838   0.04196   1.000
    O172    O    0.07122   0.90279   0.13512   1.000
    O173    O    0.61593   0.86443   0.13493   1.000
    O174    O    0.57556   0.75004   0.17534   1.000
    O175    O    0.41273   0.91375   0.13003   1.000
    O176    O    0.42688   0.98229   0.13710   1.000
    O177    O    0.46004   0.94957   0.15877   1.000
    O178    O    0.39226   0.92094   0.19670   1.000
    O179    O    0.53530   0.39929   0.17205   1.000
    O180    O    0.50743   0.30336   0.20363   1.000
    O181    O    0.98919   0.88229   0.17080   1.000
    O182    O    0.00734   0.80744   0.20370   1.000
    O183    O    0.88249   0.85621   0.21380   1.000
    O184    O    0.51933   0.43667   0.24542   1.000
    O185    O    0.96800   0.72464   0.22777   1.000
    O186    O    0.51069   0.23218   0.23605   1.000
    O187    O    0.02705   0.74841   0.23247   1.000
    O188    O    0.96919   0.73728   0.27825   1.000
    O189    O    0.44788   0.22101   0.24649   1.000
    O190    O    0.47620   0.24413   0.28203   1.000
    O191    O    0.50122   0.63593   0.24949   1.000
    O192    O    0.58749   0.68168   0.31552   1.000
    O193    O    0.74496   0.76654   0.31841   1.000
    O194    O    0.47005   0.40319   0.38285   1.000
    O195    O    0.63324   0.69684   0.38167   1.000
    O196    O    0.67156   0.70774   0.42913   1.000
    O197    O    0.54964   0.64465   0.43237   1.000
    O198    O    0.61849   0.48165   0.44582   1.000
    O199    O    0.78192   0.75867   0.47452   1.000
    O200    O    0.25394   0.30465   0.46649   1.000
    O201    O    0.26429   0.25200   0.46840   1.000
    O202    O    0.46392   0.37734   0.48714   1.000
    O203    O    0.38954   0.33910   0.48914   1.000
    O204    O    0.39221   0.55140   0.48885   1.000
    O205    O    0.61762   0.42048   0.47172   1.000
    O206    O    0.70321   0.71164   0.49344   1.000
    O207    O    0.61047   0.66093   0.51087   1.000
    O208    O    0.54319   0.41275   0.49964   1.000
    O209    O    0.60780   0.44863   0.51116   1.000
    O210    O    0.45682   0.58728   0.50036   1.000
    O211    O    0.53609   0.62269   0.51285   1.000
    O212    O    0.29680   0.28838   0.50657   1.000
    O213    O    0.21809   0.24136   0.52549   1.000
    O214    O    0.73572   0.74802   0.53161   1.000
    O215    O    0.74607   0.69537   0.53351   1.000
    O216    O    0.45037   0.35538   0.56763   1.000
    O217    O    0.38239   0.57956   0.52828   1.000
    O218    O    0.38152   0.51838   0.55419   1.000
    O219    O    0.32845   0.29229   0.57088   1.000
    O220    O    0.52996   0.59684   0.61715   1.000
    O221    O    0.36677   0.30319   0.61833   1.000
    O222    O    0.41252   0.31835   0.68448   1.000
    O223    O    0.25506   0.23349   0.68157   1.000
    O224    O    0.52381   0.75590   0.71795   1.000
    O225    O    0.03082   0.26275   0.72136   1.000
    O226    O    0.48068   0.56336   0.75458   1.000
    O227    O    0.11752   0.14382   0.78619   1.000
    O228    O    0.49879   0.36409   0.75052   1.000
    O229    O    0.55213   0.77902   0.75351   1.000
    O230    O    0.42445   0.24999   0.82467   1.000
    O231    O    0.40359   0.32279   0.83094   1.000
    O232    O    0.33119   0.23678   0.84451   1.000
    O233    O    0.48932   0.76785   0.76394   1.000
    O234    O    0.49258   0.69667   0.79637   1.000
    O235    O    0.97296   0.25162   0.76711   1.000
    O236    O    0.03201   0.27539   0.77181   1.000
    O237    O    0.99267   0.19259   0.79591   1.000
    O238    O    0.60775   0.07909   0.80331   1.000
    O239    O    0.46471   0.60073   0.82796   1.000
    O240    O    0.43708   0.51501   0.86617   1.000
    O241    O    0.01082   0.11774   0.82921   1.000
    O242    O    0.01330   0.04572   0.86551   1.000
    O243    O    0.25018   0.25135   0.88301   1.000
    O244    O    0.92879   0.09724   0.86489   1.000
    O245    O    0.38408   0.13560   0.86507   1.000
    O246    O    0.45021   0.62182   0.88885   1.000
    O247    O    0.53997   0.05046   0.84123   1.000
    O248    O    0.57313   0.01774   0.86291   1.000
    O249    O    0.58727   0.08628   0.86997   1.000
    O250    O    0.02996   0.90859   0.89308   1.000
    O251    O    0.63735   0.56273   0.88266   1.000
    O252    O    0.69729   0.58740   0.88446   1.000
    O253    O    0.65934   0.61748   0.89344   1.000
    O254    O    0.57587   0.14328   0.90579   1.000
    O255    O    0.63495   0.12133   0.91397   1.000
    O256    O    0.41731   0.26410   0.90371   1.000
    O257    O    0.49575   0.18090   0.90607   1.000
    O258    O    0.34490   0.17809   0.91728   1.000
    O259    O    0.81811   0.06083   0.91814   1.000
    O260    O    0.88166   0.01194   0.92379   1.000
    O261    O    0.00120   0.95433   0.91363   1.000
    O262    O    0.93282   0.97917   0.92480   1.000
    O263    O    0.40529   0.40291   0.91177   1.000
    O264    O    0.32404   0.25089   0.92355   1.000
    O265    O    0.27227   0.80652   0.94864   1.000
    O266    O    0.40529   0.48257   0.94949   1.000
    O267    O    0.57673   0.19512   0.93757   1.000
    O268    O    0.05511   0.93252   0.92926   1.000
    O269    O    0.98967   0.87815   0.96048   1.000
    O270    O    0.71380   0.09513   0.93358   1.000
    O271    O    0.67096   0.15928   0.95023   1.000
    O272    O    0.41374   0.54975   0.96299   1.000
    O273    O    0.43374   0.64810   0.96917   1.000
    O274    O    0.63528   0.20585   0.96492   1.000
    O275    O    0.26806   0.74305   0.97617   1.000
loop_
    _geom_bond_atom_site_label_1
    _geom_bond_atom_site_label_2
    _geom_bond_distance
    _geom_bond_site_symmetry_2
    _ccdc_geom_bond_type
    C40    O128      0.49594      .   S
    C82    O128      0.49594      .   S
    C15    O129      0.96726      .   S
    C126   O129      0.96726      .   S
    C15    O130      0.94230  1_554   S
    C118   O130      0.94230      .   S
    C82    O131      0.62963      .   S
    C41    O131      0.62963      .   S
    C82    O132      0.53253  1_554   S
    C42    O132      0.53253      .   S
    C82    O133      0.64791  1_554   S
    C81    O133      0.64791      .   S
    C92    O134      0.69005      .   S
    C126   O134      0.69005      .   S
    C92    O135      0.77323      .   S
    C125   O135      0.77323      .   S
    C92    O136      0.65940  1_554   S
    C95    O136      0.65940      .   S
    C31    O137      0.54785      .   S
    C75    O137      0.54785  1_655   S
    C65    O138      0.66894      .   S
    C106   O138      0.66894      .   S
    C65    O139      0.68143      .   S
    C105   O139      0.68143      .   S
    C65    O140      0.74198      .   S
    C66    O140      0.74198  1_556   S
    C18    O141      0.54957      .   S
    C66    O141      0.54957  1_556   S
    C106   O142      0.69282      .   S
    C104   O142      0.69282      .   S
    C106   O143      0.95122      .   S
    C7     O143      0.95122  1_556   S
    C110   O144      0.66888      .   S
    C72    O144      0.66888      .   S
    C110   O145      0.69265  1_545   S
    C112   O145      0.69265      .   S
    C110   O146      1.00183  1_554   S
    C4     O146      1.00183      .   S
    C126   O147      0.68159      .   S
    C93    O147      0.68159      .   S
    C12    O148      1.30274      .   S
    C14    O148      1.30274      .   S
    C12    O149      1.31969      .   S
    C0     O149      1.31969      .   S
    C12    O150      1.32189      .   S
    C103   O150      1.32189      .   S
    C12    O151      1.31758      .   S
    C2     O151      1.31758      .   S
    C12    O152      1.00182      .   S
    C122   O152      1.00182  1_556   S
    C1     O153      0.95435      .   S
    C105   O153      0.95435      .   S
    C1     O154      0.95139      .   S
    C112   O154      0.95139      .   S
    C33    O155      0.54855      .   S
    C75    O155      0.54855      .   S
    C105   O156      0.68497      .   S
    C64    O156      0.68497      .   S
    C75    O157      0.74081      .   S
    C72    O157      0.74081  1_455   S
    C75    O158      0.55028      .   S
    C32    O158      0.55028      .   S
    C104   O159      1.00264      .   S
    C0     O159      1.00264      .   S
    C104   O160      0.66887      .   S
    C64    O160      0.66887      .   S
    C98    O161      1.32408  1_554   S
    C6     O161      1.32408      .   S
    C125   O162      1.00243      .   S
    C14    O162      1.00243      .   S
    C125   O163      0.69272      .   S
    C127   O163      0.69272      .   S
    C14    O164      1.31852      .   S
    C0     O164      1.31852      .   S
    C14    O165      1.31745      .   S
    C2     O165      1.31745      .   S
    C14    O166      1.32407      .   S
    C102   O166      1.32407  1_556   S
    C72    O167      0.68491  1_445   S
    C111   O167      0.68491      .   S
    C79    O168      0.54782      .   S
    C37    O168      0.54782      .   S
    C79    O169      0.55032      .   S
    C38    O169      0.55032      .   S
    C79    O170      0.54877      .   S
    C39    O170      0.54877      .   S
    C79    O171      0.74081      .   S
    C76    O171      0.74081  1_556   S
    C112   O172      0.66880      .   S
    C73    O172      0.66880      .   S
    C0     O173      1.32429      .   S
    C97    O173      1.32429      .   S
    C0     O174      1.30534      .   S
    C2     O174      1.30534      .   S
    C64    O175      0.74086      .   S
    C67    O175      0.74086      .   S
    C21    O176      0.54843  1_545   S
    C67    O176      0.54843      .   S
    C67    O177      0.54786      .   S
    C19    O177      0.54786      .   S
    C67    O178      0.55028      .   S
    C20    O178      0.55028      .   S
    C93    O179      0.66890      .   S
    C127   O179      0.66890      .   S
    C93    O180      0.74197      .   S
    C94    O180      0.74197      .   S
    C73    O181      0.68153  1_455   S
    C111   O181      0.68153      .   S
    C73    O182      0.74074      .   S
    C74    O182      0.74074  1_655   S
    C111   O183      0.95409      .   S
    C5     O183      0.95409      .   S
    C127   O184      0.95139      .   S
    C11    O184      0.95139      .   S
    C29    O185      0.54545      .   S
    C74    O185      0.54545      .   S
    C60    O186      0.54965      .   S
    C94    O186      0.54965      .   S
    C28    O187      0.54943      .   S
    C74    O187      0.54943  1_655   S
    C74    O188      0.55486      .   S
    C30    O188      0.55486      .   S
    C94    O189      0.55004      .   S
    C59    O189      0.55004      .   S
    C94    O190      0.54888      .   S
    C58    O190      0.54888      .   S
    C2     O191      1.32309      .   S
    C96    O191      1.32309      .   S
    C2     O192      1.00236      .   S
    C107   O192      1.00236      .   S
    C5     O193      0.95148      .   S
    C109   O193      0.95148      .   S
    C11    O194      0.95469      .   S
    C120   O194      0.95469      .   S
    C109   O195      0.69275      .   S
    C107   O195      0.69275      .   S
    C109   O196      0.66902      .   S
    C69    O196      0.66902      .   S
    C107   O197      0.66876      .   S
    C68    O197      0.66876      .   S
    C51    O198      0.54852      .   S
    C87    O198      0.54852      .   S
    C22    O199      0.54890      .   S
    C70    O199      0.54890      .   S
    C47    O200      0.55005      .   S
    C86    O200      0.55005      .   S
    C48    O201      0.54959      .   S
    C86    O201      0.54959      .   S
    C120   O202      0.68480      .   S
    C84    O202      0.68480      .   S
    C120   O203      0.68163      .   S
    C85    O203      0.68163      .   S
    C25    O204      0.54789      .   S
    C71    O204      0.54789      .   S
    C50    O205      0.55027      .   S
    C87    O205      0.55027      .   S
    C69    O206      0.74202      .   S
    C70    O206      0.74202      .   S
    C69    O207      0.68161      .   S
    C108   O207      0.68161      .   S
    C87    O208      0.74091      .   S
    C84    O208      0.74091      .   S
    C87    O209      0.54788      .   S
    C49    O209      0.54788      .   S
    C68    O210      0.74089      .   S
    C71    O210      0.74089      .   S
    C68    O211      0.68493      .   S
    C108   O211      0.68493      .   S
    C86    O212      0.74208      .   S
    C85    O212      0.74208      .   S
    C86    O213      0.54890      .   S
    C46    O213      0.54890      .   S
    C70    O214      0.54964      .   S
    C24    O214      0.54964      .   S
    C70    O215      0.55005      .   S
    C23    O215      0.55005      .   S
    C84    O216      0.66887      .   S
    C119   O216      0.66887      .   S
    C71    O217      0.55027      .   S
    C26    O217      0.55027      .   S
    C71    O218      0.54852      .   S
    C27    O218      0.54852      .   S
    C85    O219      0.66895      .   S
    C121   O219      0.66895      .   S
    C108   O220      0.95462      .   S
    C3     O220      0.95462      .   S
    C119   O221      0.69275      .   S
    C121   O221      0.69275      .   S
    C119   O222      1.00236      .   S
    C10    O222      1.00236      .   S
    C121   O223      0.95133      .   S
    C13    O223      0.95133      .   S
    C34    O224      0.54927      .   S
    C78    O224      0.54927      .   S
    C54    O225      0.54957      .   S
    C90    O225      0.54957      .   S
    C3     O226      0.95148      .   S
    C115   O226      0.95148      .   S
    C13    O227      0.95414      .   S
    C123   O227      0.95414      .   S
    C100   O228      1.32309      .   S
    C10    O228      1.32309      .   S
    C35    O229      0.55003      .   S
    C78    O229      0.55003      .   S
    C10    O230      1.30531      .   S
    C8     O230      1.30531      .   S
    C10    O231      1.31742      .   S
    C6     O231      1.31742      .   S
    C10    O232      1.31755      .   S
    C4     O232      1.31755      .   S
    C78    O233      0.54961      .   S
    C36    O233      0.54961      .   S
    C78    O234      0.74197      .   S
    C77    O234      0.74197      .   S
    C90    O235      0.54882  1_455   S
    C52    O235      0.54882      .   S
    C90    O236      0.54958      .   S
    C53    O236      0.54958      .   S
    C90    O237      0.74192  1_455   S
    C89    O237      0.74192      .   S
    C44    O238      0.55028      .   S
    C83    O238      0.55028      .   S
    C115   O239      0.66890      .   S
    C77    O239      0.66890      .   S
    C115   O240      0.69271      .   S
    C113   O240      0.69271      .   S
    C123   O241      0.68153      .   S
    C89    O241      0.68153  1_655   S
    C123   O242      0.68474      .   S
    C88    O242      0.68474  1_665   S
    C99    O243      1.32188      .   S
    C4     O243      1.32188      .   S
    C89    O244      0.66881      .   S
    C124   O244      0.66881      .   S
    C101   O245      1.32424      .   S
    C8     O245      1.32424      .   S
    C77    O246      0.68159      .   S
    C114   O246      0.68159      .   S
    C43    O247      0.54785      .   S
    C83    O247      0.54785      .   S
    C83    O248      0.54843      .   S
    C45    O248      0.54843  1_565   S
    C83    O249      0.74087      .   S
    C80    O249      0.74087      .   S
    C56    O250      0.55071      .   S
    C91    O250      0.55071      .   S
    C63    O251      0.54862      .   S
    C95    O251      0.54862      .   S
    C62    O252      0.55031      .   S
    C95    O252      0.55031      .   S
    C61    O253      0.54785      .   S
    C95    O253      0.54785      .   S
    C80    O254      0.66879      .   S
    C116   O254      0.66879      .   S
    C80    O255      0.68477      .   S
    C117   O255      0.68477      .   S
    C8     O256      1.31856      .   S
    C6     O256      1.31856      .   S
    C8     O257      1.00255      .   S
    C116   O257      1.00255      .   S
    C8     O258      1.31969      .   S
    C4     O258      1.31969      .   S
    C124   O259      0.95137      .   S
    C9     O259      0.95137      .   S
    C124   O260      0.69266      .   S
    C122   O260      0.69266  1_565   S
    C88    O261      0.74085  1_655   S
    C91    O261      0.74085      .   S
    C88    O262      0.66897      .   S
    C122   O262      0.66897      .   S
    C6     O263      1.00244      .   S
    C113   O263      1.00244      .   S
    C6     O264      1.30273      .   S
    C4     O264      1.30273      .   S
    C17    O265      0.54989      .   S
    C66    O265      0.54989      .   S
    C113   O266      0.66868      .   S
    C76    O266      0.66868      .   S
    C116   O267      0.69310      .   S
    C118   O267      0.69310      .   S
    C91    O268      0.54855      .   S
    C57    O268      0.54855      .   S
    C91    O269      0.54779  1_455   S
    C55    O269      0.54779      .   S
    C117   O270      0.95435      .   S
    C9     O270      0.95435      .   S
    C117   O271      0.68131      .   S
    C81    O271      0.68131      .   S
    C114   O272      0.68479      .   S
    C76    O272      0.68479      .   S
    C114   O273      0.95424      .   S
    C7     O273      0.95424      .   S
    C118   O274      0.66884      .   S
    C81    O274      0.66884      .   S
    C16    O275      0.54889      .   S
    C66    O275      0.54889      .   S
