# CIF file generated by openbabel 2.4.90, see http://openbabel.sf.net
data_I
_chemical_name_common ''
_cell_length_a 7.816
_cell_length_b 10.681
_cell_length_c 17.955
_cell_angle_alpha 89.939
_cell_angle_beta 89.762
_cell_angle_gamma 89.996
_space_group_name_H-M_alt 'P 1'
_space_group_name_Hall 'P 1'
loop_
    _symmetry_equiv_pos_as_xyz
    x,y,z
loop_
    _atom_site_label
    _atom_site_type_symbol
    _atom_site_fract_x
    _atom_site_fract_y
    _atom_site_fract_z
    _atom_site_occupancy
    N0      N    0.38879   0.16112   0.16924   1.000
    N1      N    0.61125   0.83829   0.83071   1.000
    N2      N    0.10861   0.66140   0.33089   1.000
    N3      N    0.89126   0.33781   0.66923   1.000
    Zr4     Zr   0.30972   0.23599   0.85444   1.000
    O5      O    0.49040   0.26993   0.80523   1.000
    O6      O    0.19615   0.28348   0.79946   1.000
    O7      O    0.17453   0.25274   0.80044   1.000
    O8      O    0.40002   0.11488   0.84165   1.000
    O9      O    0.32599   0.20720   0.94776   1.000
    Zr10    Zr   0.80631   0.26320   0.35441   1.000
    O11     O    0.82404   0.29166   0.44778   1.000
    O12     O    0.89680   0.38455   0.34168   1.000
    O13     O    0.98721   0.22939   0.30522   1.000
    O14     O    0.67134   0.24623   0.30042   1.000
    O15     O    0.69292   0.21556   0.29948   1.000
    Zr16    Zr   0.68994   0.76411   0.14595   1.000
    O17     O    0.80361   0.71626   0.20081   1.000
    O18     O    0.82520   0.74698   0.19987   1.000
    O19     O    0.67383   0.79250   0.05247   1.000
    O20     O    0.59979   0.88517   0.15861   1.000
    O21     O    0.50931   0.73017   0.19505   1.000
    Zr22    Zr   0.19348   0.73573   0.64550   1.000
    O23     O    0.17578   0.70720   0.55221   1.000
    O24     O    0.01269   0.76997   0.69472   1.000
    O25     O    0.32852   0.75275   0.69949   1.000
    O26     O    0.30687   0.78346   0.70046   1.000
    O27     O    0.10305   0.61444   0.65826   1.000
loop_
    _geom_bond_atom_site_label_1
    _geom_bond_atom_site_label_2
    _geom_bond_distance
    _geom_bond_site_symmetry_2
    _ccdc_geom_bond_type
    Zr4    O5        1.70160      .   S
    N3     O5        4.02969      .   S
    Zr4    O6        1.42335      .   S
    N3     O6        3.39507  1_655   S
    Zr4    O7        1.44802      .   S
    N3     O7        3.36399  1_655   S
    Zr4    O8        1.49110      .   S
    N1     O8        3.38970  1_565   S
    Zr4    O9        1.70836      .   S
    N0     O9        4.03856  1_554   S
    Zr10   O11       1.71035      .   S
    N3     O11       4.04350      .   S
    Zr10   O12       1.49347      .   S
    N2     O12       3.39397  1_455   S
    Zr10   O13       1.70292      .   S
    N0     O13       4.03533  1_455   S
    Zr10   O14       1.44713      .   S
    N0     O14       3.36143      .   S
    Zr10   O15       1.42321      .   S
    N0     O15       3.39206      .   S
    Zr16   O17       1.42363      .   S
    N2     O17       3.39484  1_455   S
    Zr16   O18       1.44790      .   S
    N2     O18       3.36380  1_455   S
    Zr16   O19       1.71033      .   S
    N1     O19       4.04287  1_556   S
    Zr16   O20       1.48968      .   S
    N0     O20       3.38253  1_545   S
    Zr16   O21       1.70034      .   S
    N2     O21       4.02861      .   S
    Zr22   O23       1.70892      .   S
    N2     O23       4.04079      .   S
    Zr22   O24       1.70352      .   S
    N1     O24       4.03476  1_655   S
    Zr22   O25       1.44763      .   S
    N1     O25       3.36413      .   S
    Zr22   O26       1.42392      .   S
    N1     O26       3.39432      .   S
    Zr22   O27       1.49281      .   S
    N3     O27       3.39203  1_655   S
