# CIF file generated by openbabel 2.4.90, see http://openbabel.sf.net
data_I
_chemical_name_common ''
_cell_length_a 7.816
_cell_length_b 10.681
_cell_length_c 17.955
_cell_angle_alpha 89.939
_cell_angle_beta 89.762
_cell_angle_gamma 89.996
_space_group_name_H-M_alt 'P 1'
_space_group_name_Hall 'P 1'
loop_
    _symmetry_equiv_pos_as_xyz
    x,y,z
loop_
    _atom_site_label
    _atom_site_type_symbol
    _atom_site_fract_x
    _atom_site_fract_y
    _atom_site_fract_z
    _atom_site_occupancy
    Zr0     Zr   0.30972   0.23599   0.85444   1.000
    Zr1     Zr   0.19348   0.73573   0.64550   1.000
    Zr2     Zr   0.68994   0.76411   0.14595   1.000
    Zr3     Zr   0.80631   0.26320   0.35441   1.000
    N4      N    0.38879   0.16112   0.16924   1.000
    O5      O    0.16812   0.19557   0.25603   1.000
    O6      O    0.34226   0.17840   0.04107   1.000
    O7      O    0.53637   0.22925   0.24643   1.000
    O8      O    0.57954   0.16791   0.24455   1.000
    O9      O    0.50964   0.00622   0.17128   1.000
    N10     N    0.61125   0.83829   0.83071   1.000
    O11     O    0.83190   0.80420   0.74395   1.000
    O12     O    0.65772   0.82088   0.95900   1.000
    O13     O    0.46356   0.76977   0.75347   1.000
    O14     O    0.42026   0.83119   0.75542   1.000
    O15     O    0.49032   0.99377   0.82886   1.000
    N16     N    0.10861   0.66140   0.33089   1.000
    O17     O    0.32867   0.69622   0.24416   1.000
    O18     O    0.15808   0.67867   0.45893   1.000
    O19     O    0.96046   0.72984   0.25378   1.000
    O20     O    0.91727   0.66841   0.25566   1.000
    O21     O    0.98730   0.50589   0.32896   1.000
    N22     N    0.89126   0.33781   0.66923   1.000
    O23     O    0.67109   0.30386   0.75602   1.000
    O24     O    0.84177   0.32012   0.54115   1.000
    O25     O    0.03935   0.26949   0.74643   1.000
    O26     O    0.08259   0.33096   0.74447   1.000
    O27     O    0.01262   0.49316   0.67103   1.000
loop_
    _geom_bond_atom_site_label_1
    _geom_bond_atom_site_label_2
    _geom_bond_distance
    _geom_bond_site_symmetry_2
    _ccdc_geom_bond_type
    N4     O5        2.34891      .   S
    Zr3    O5        3.40584  1_655   S
    N4     O6        2.33850      .   S
    Zr0    O6        3.41672  1_556   S
    N4     O7        1.94854      .   S
    Zr3    O7        2.89425      .   S
    N4     O8        2.01821      .   S
    Zr3    O8        2.84641      .   S
    N4     O9        1.90545      .   S
    Zr2    O9        2.97935  1_565   S
    N10    O11       2.34785      .   S
    Zr1    O11       3.40703  1_455   S
    N10    O12       2.34057      .   S
    Zr2    O12       3.42066  1_554   S
    N10    O13       1.95108      .   S
    Zr1    O13       2.89527      .   S
    N10    O14       2.01956      .   S
    Zr1    O14       2.84784      .   S
    N10    O15       1.91113      .   S
    Zr0    O15       2.98221  1_545   S
    N16    O17       2.34490      .   S
    Zr2    O17       3.40069      .   S
    N16    O18       2.34027      .   S
    Zr1    O18       3.41783      .   S
    N16    O19       1.95013  1_455   S
    Zr2    O19       2.89579      .   S
    N16    O20       2.02069  1_455   S
    Zr2    O20       2.84727      .   S
    N16    O21       1.91302  1_455   S
    Zr3    O21       2.98694      .   S
    N22    O23       2.34483      .   S
    Zr0    O23       3.40321      .   S
    N22    O24       2.34130      .   S
    Zr3    O24       3.42071      .   S
    N22    O25       1.95063  1_655   S
    Zr0    O25       2.89605      .   S
    N22    O26       2.02076  1_655   S
    Zr0    O26       2.84671      .   S
    N22    O27       1.91164  1_655   S
    Zr1    O27       2.98562      .   S
