# CIF file generated by openbabel 2.4.90, see http://openbabel.sf.net
data_I
_chemical_name_common ''
_cell_length_a 13.07
_cell_length_b 24.209
_cell_length_c 15.042
_cell_angle_alpha 90.033
_cell_angle_beta 90.136
_cell_angle_gamma 90.336
_space_group_name_H-M_alt 'P 1'
_space_group_name_Hall 'P 1'
loop_
    _symmetry_equiv_pos_as_xyz
    x,y,z
loop_
    _atom_site_label
    _atom_site_type_symbol
    _atom_site_fract_x
    _atom_site_fract_y
    _atom_site_fract_z
    _atom_site_occupancy
    Lv0     Lv   0.51135   0.89181   0.87179   1.000
    Lv1     Lv   0.00696   0.60973   0.37241   1.000
    Lv2     Lv   0.49282   0.39080   0.34635   1.000
    Lv3     Lv   0.50423   0.61072   0.84648   1.000
    Lv4     Lv   0.99443   0.10996   0.84144   1.000
    Lv5     Lv   0.98727   0.39099   0.87280   1.000
    Lv6     Lv   0.00167   0.89062   0.34031   1.000
    Lv7     Lv   0.48826   0.10878   0.37073   1.000
