# CIF file generated by openbabel 2.4.90, see http://openbabel.sf.net
data_I
_chemical_name_common ''
_cell_length_a 13.07
_cell_length_b 24.209
_cell_length_c 15.042
_cell_angle_alpha 90.033
_cell_angle_beta 90.136
_cell_angle_gamma 90.336
_space_group_name_H-M_alt 'P 1'
_space_group_name_Hall 'P 1'
loop_
    _symmetry_equiv_pos_as_xyz
    x,y,z
loop_
    _atom_site_label
    _atom_site_type_symbol
    _atom_site_fract_x
    _atom_site_fract_y
    _atom_site_fract_z
    _atom_site_occupancy
    H0      H    0.91407   0.17290   0.73635   1.000
    H1      H    0.98691   0.00724   0.82058   1.000
    H2      H    0.08435   0.15252   0.96728   1.000
    H3      H    0.08692   0.33517   0.97643   1.000
    H4      H    0.99668   0.49460   0.87199   1.000
    H5      H    0.87999   0.34065   0.76704   1.000
    H6      H    0.08339   0.82757   0.23639   1.000
    H7      H    0.00859   0.99328   0.31884   1.000
    H8      H    0.91152   0.84824   0.46573   1.000
    H9      H    0.90989   0.66608   0.47525   1.000
    H10     H    0.99869   0.50613   0.37189   1.000
    H11     H    0.11692   0.65955   0.26696   1.000
    H12     H    0.58564   0.67368   0.74162   1.000
    H13     H    0.51132   0.50800   0.82640   1.000
    H14     H    0.41382   0.65323   0.97120   1.000
    H15     H    0.41216   0.83641   0.97680   1.000
    H16     H    0.50130   0.99532   0.86770   1.000
    H17     H    0.61869   0.84107   0.76787   1.000
    H18     H    0.41462   0.32771   0.23940   1.000
    H19     H    0.48236   0.49355   0.32810   1.000
    H20     H    0.58361   0.34839   0.47130   1.000
    H21     H    0.58856   0.16469   0.47569   1.000
    H22     H    0.49577   0.00000   0.36809   1.000
    H23     H    0.38223   0.16034   0.26568   1.000
    C24     C    0.94741   0.14392   0.78318   1.000
    C25     C    0.94255   0.08707   0.76930   1.000
    C26     C    0.98945   0.05182   0.82966   1.000
    C27     C    0.04426   0.07526   0.90051   1.000
    C28     C    0.04517   0.13263   0.91185   1.000
    C29     C    0.04320   0.36091   0.93126   1.000
    C30     C    0.05136   0.41854   0.93249   1.000
    C31     C    0.99179   0.44965   0.87389   1.000
    C32     C    0.92838   0.42144   0.81370   1.000
    C33     C    0.92545   0.36380   0.81492   1.000
    C34     C    0.04938   0.85660   0.28269   1.000
    C35     C    0.05390   0.91341   0.26852   1.000
    C36     C    0.00626   0.94873   0.32810   1.000
    C37     C    0.95128   0.92539   0.39878   1.000
    C38     C    0.95073   0.86806   0.41045   1.000
    C39     C    0.95347   0.64008   0.43050   1.000
    C40     C    0.94475   0.58248   0.43203   1.000
    C41     C    0.00000   0.55107   0.37375   1.000
    C42     C    0.06771   0.57898   0.31363   1.000
    C43     C    0.07125   0.63662   0.31471   1.000
    C44     C    0.55176   0.64472   0.78838   1.000
    C45     C    0.55641   0.58788   0.77502   1.000
    C46     C    0.50896   0.55258   0.83518   1.000
    C47     C    0.45393   0.57595   0.90541   1.000
    C48     C    0.45317   0.63336   0.91631   1.000
    C49     C    0.45573   0.86200   0.93107   1.000
    C50     C    0.44722   0.91957   0.93050   1.000
    C51     C    0.50651   0.95044   0.87110   1.000
    C52     C    0.57000   0.92202   0.81188   1.000
    C53     C    0.57327   0.86444   0.81494   1.000
    C54     C    0.44699   0.35674   0.28707   1.000
    C55     C    0.44055   0.41362   0.27468   1.000
    C56     C    0.48618   0.44894   0.33610   1.000
    C57     C    0.54143   0.42565   0.40650   1.000
    C58     C    0.54401   0.36821   0.41632   1.000
    C59     C    0.54458   0.13920   0.42989   1.000
    C60     C    0.55177   0.08156   0.43001   1.000
    C61     C    0.49174   0.05077   0.37068   1.000
    C62     C    0.42901   0.07928   0.31082   1.000
    C63     C    0.42712   0.13691   0.31319   1.000
    N64     N    0.99565   0.16631   0.85424   1.000
    N65     N    0.98170   0.33413   0.87350   1.000
    N66     N    0.00000   0.83433   0.35330   1.000
    N67     N    0.00000   0.66655   0.37294   1.000
    N68     N    0.50306   0.66708   0.85876   1.000
    N69     N    0.51726   0.83506   0.87429   1.000
    N70     N    0.49563   0.33438   0.35767   1.000
    N71     N    0.48359   0.16626   0.37250   1.000
loop_
    _geom_bond_atom_site_label_1
    _geom_bond_atom_site_label_2
    _geom_bond_distance
    _geom_bond_site_symmetry_2
    _ccdc_geom_bond_type
    H6     C34       1.08675      .   S
    H18    C54       1.08685      .   S
    H23    C63       1.08593      .   S
    H11    C43       1.08587      .   S
    C35    C34       1.39272      .   S
    C35    C36       1.38928      .   S
    C55    C54       1.39285      .   S
    C55    C56       1.38955      .   S
    C34    N66       1.35473      .   S
    C54    N70       1.35138      .   S
    C62    C63       1.39594      .   S
    C62    C61       1.40104      .   S
    C63    N71       1.35477      .   S
    C42    C43       1.39591      .   S
    C42    C41       1.43348      .   S
    C43    N67       1.47330      .   S
    H7     C36       1.08785      .   S
    C36    C37       1.40188  1_455   S
    H19    C56       1.08804      .   S
    C56    C57       1.40091      .   S
    N66    C38       1.35226  1_455   S
    N70    C58       1.35623      .   S
    H22    C61       1.23120      .   S
    C61    C60       1.39882      .   S
    H10    C41       1.08833  1_655   S
    N71    C59       1.34654      .   S
    N67    C39       1.23641  1_455   S
    C41    C40       1.36996  1_455   S
    C37    C38       1.39918      .   S
    C57    C58       1.39904      .   S
    C38    H8        1.08798      .   S
    C58    H20       1.08798      .   S
    C59    C60       1.39897      .   S
    C59    H21       1.08604      .   S
    C39    C40       1.39869      .   S
    C39    H9        1.08594      .   S
    H0     C24       1.08685      .   S
    H12    C44       1.08672      .   S
    H5     C33       1.08598      .   S
    H17    C53       1.08595      .   S
    C25    C24       1.39297      .   S
    C25    C26       1.39017      .   S
    C45    C44       1.39227      .   S
    C45    C46       1.38960      .   S
    C24    N64       1.35130      .   S
    C44    N68       1.35113      .   S
    C52    C53       1.39552      .   S
    C52    C51       1.40182      .   S
    C32    C33       1.39582      .   S
    C32    C31       1.40078      .   S
    C33    N65       1.35522      .   S
    C53    N69       1.35521      .   S
    H1     C26       1.08805      .   S
    H13    C46       1.08796      .   S
    C26    C27       1.40070  1_655   S
    C46    C47       1.40043      .   S
    N64    C28       1.35599  1_655   S
    N68    C48       1.35585      .   S
    H16    C51       1.09014      .   S
    C51    C50       1.39811      .   S
    H4     C31       1.09002      .   S
    N65    C29       1.34571  1_655   S
    C31    C30       1.39813  1_655   S
    N69    C49       1.34549      .   S
    C27    C28       1.39916      .   S
    C47    C48       1.39931      .   S
    C28    H2        1.08801      .   S
    C48    H14       1.08730      .   S
    C50    C49       1.39894      .   S
    C49    H15       1.08601      .   S
    C29    C30       1.39887      .   S
    C29    H3        1.08593      .   S
