# CIF file generated by openbabel 2.4.90, see http://openbabel.sf.net
data_I
_chemical_name_common ''
_cell_length_a 13.07
_cell_length_b 24.209
_cell_length_c 15.042
_cell_angle_alpha 90.033
_cell_angle_beta 90.136
_cell_angle_gamma 90.336
_space_group_name_H-M_alt 'P 1'
_space_group_name_Hall 'P 1'
loop_
    _symmetry_equiv_pos_as_xyz
    x,y,z
loop_
    _atom_site_label
    _atom_site_type_symbol
    _atom_site_fract_x
    _atom_site_fract_y
    _atom_site_fract_z
    _atom_site_occupancy
    C0      C    0.89457   0.06750   0.68505   1.000
    C1      C    0.10406   0.03866   0.96090   1.000
    C2      C    0.13484   0.44201   0.98905   1.000
    C3      C    0.86911   0.45141   0.74320   1.000
    C4      C    0.10287   0.93277   0.18485   1.000
    C5      C    0.89174   0.96223   0.45891   1.000
    C6      C    0.86066   0.55973   0.48851   1.000
    C7      C    0.12646   0.54869   0.24310   1.000
    C8      C    0.60502   0.56822   0.69159   1.000
    C9      C    0.39395   0.53905   0.96554   1.000
    C10     C    0.36334   0.94280   0.98622   1.000
    C11     C    0.62842   0.95159   0.74000   1.000
    C12     C    0.39228   0.43345   0.19094   1.000
    C13     C    0.60021   0.46273   0.46766   1.000
    C14     C    0.63431   0.05770   0.48668   1.000
    C15     C    0.36932   0.04975   0.23952   1.000
