# CIF file generated by openbabel 2.4.90, see http://openbabel.sf.net
data_I
_chemical_name_common ''
_cell_length_a 13.07
_cell_length_b 24.209
_cell_length_c 15.042
_cell_angle_alpha 90.033
_cell_angle_beta 90.136
_cell_angle_gamma 90.336
_space_group_name_H-M_alt 'P 1'
_space_group_name_Hall 'P 1'
loop_
    _symmetry_equiv_pos_as_xyz
    x,y,z
loop_
    _atom_site_label
    _atom_site_type_symbol
    _atom_site_fract_x
    _atom_site_fract_y
    _atom_site_fract_z
    _atom_site_occupancy
    N0      N    0.51135   0.89181   0.87179   1.000
    N1      N    0.00696   0.60973   0.37241   1.000
    N2      N    0.49282   0.39080   0.34635   1.000
    N3      N    0.50423   0.61072   0.84648   1.000
    N4      N    0.99443   0.10996   0.84144   1.000
    N5      N    0.98727   0.39099   0.87280   1.000
    N6      N    0.00167   0.89062   0.34031   1.000
    N7      N    0.48826   0.10878   0.37073   1.000
    Zr8     Zr   0.76899   0.01272   0.58502   1.000
    O9      O    0.66213   0.96351   0.70444   1.000
    O10     O    0.65482   0.05096   0.49978   1.000
    O11     O    0.86529   0.96497   0.48480   1.000
    O12     O    0.86274   0.05317   0.68466   1.000
    Zr13    Zr   0.26876   0.48719   0.08675   1.000
    O14     O    0.36169   0.44718   0.18816   1.000
    O15     O    0.36642   0.53565   0.98886   1.000
    O16     O    0.15447   0.44891   0.00177   1.000
    O17     O    0.16039   0.53699   0.20607   1.000
    Zr18    Zr   0.72678   0.51436   0.59031   1.000
    O19     O    0.84081   0.55239   0.50332   1.000
    O20     O    0.63462   0.55437   0.69010   1.000
    O21     O    0.83489   0.46403   0.70797   1.000
    O22     O    0.62930   0.46593   0.49101   1.000
    Zr23    Zr   0.22815   0.98736   0.08287   1.000
    O24     O    0.13122   0.03541   0.98447   1.000
    O25     O    0.13409   0.94711   0.18318   1.000
    O26     O    0.34323   0.94943   0.99897   1.000
    O27     O    0.33593   0.03700   0.20291   1.000
    Zr28    Zr   0.00240   0.74986   0.36530   1.000
    O29     O    0.00294   0.70448   0.36803   1.000
    O30     O    0.00162   0.79568   0.35755   1.000
    Zr31    Zr   0.99220   0.25086   0.86606   1.000
    O32     O    0.99289   0.20500   0.85842   1.000
    O33     O    0.98936   0.29623   0.86866   1.000
    Zr34    Zr   0.50644   0.75165   0.86887   1.000
    O35     O    0.50577   0.70578   0.86200   1.000
    O36     O    0.50933   0.79705   0.87027   1.000
    Zr37    Zr   0.49376   0.24968   0.36730   1.000
    O38     O    0.49345   0.29562   0.36085   1.000
    O39     O    0.49081   0.20409   0.36880   1.000
loop_
    _geom_bond_atom_site_label_1
    _geom_bond_atom_site_label_2
    _geom_bond_distance
    _geom_bond_site_symmetry_2
    _ccdc_geom_bond_type
    Zr8    O9        2.56733  1_545   S
    N0     O9        3.63621      .   S
    Zr8    O10       2.17631      .   S
    N7     O10       3.23803      .   S
    Zr8    O11       2.28413  1_545   S
    N6     O11       3.34544  1_455   S
    Zr8    O12       2.16393      .   S
    N4     O12       3.21918      .   S
    Zr13   O14       2.17888      .   S
    N2     O14       3.23637      .   S
    Zr13   O15       2.27308  1_554   S
    N3     O15       3.33443      .   S
    Zr13   O16       2.16731      .   S
    N5     O16       3.23201  1_656   S
    Zr13   O17       2.59040      .   S
    N1     O17       3.66645      .   S
    Zr18   O19       2.18522      .   S
    N1     O19       3.24178  1_455   S
    Zr18   O20       2.15935      .   S
    N3     O20       3.21574      .   S
    Zr18   O21       2.57379      .   S
    N5     O21       3.64202      .   S
    Zr18   O22       2.28039      .   S
    N2     O22       3.34121      .   S
    Zr23   O24       2.27145  1_564   S
    N4     O24       3.33276  1_655   S
    Zr23   O25       2.17581      .   S
    N6     O25       3.23214      .   S
    Zr23   O26       2.17299  1_554   S
    N0     O26       3.23818      .   S
    Zr23   O27       2.57969  1_565   S
    N7     O27       3.64499      .   S
    Zr28   O29       1.09945      .   S
    N1     O29       2.29574      .   S
    Zr28   O30       1.11544      .   S
    N6     O30       2.31330      .   S
    Zr31   O32       1.11634      .   S
    N4     O32       2.31484      .   S
    Zr31   O33       1.09983      .   S
    N5     O33       2.29508      .   S
    Zr34   O35       1.11514      .   S
    N3     O35       2.31298      .   S
    Zr34   O36       1.09976      .   S
    N0     O36       2.29420      .   S
    Zr37   O38       1.11638      .   S
    N2     O38       2.31478      .   S
    Zr37   O39       1.10424      .   S
    N7     O39       2.30776      .   S
