# CIF file generated by openbabel 2.4.90, see http://openbabel.sf.net
data_I
_chemical_name_common ''
_cell_length_a 18.077
_cell_length_b 18.099
_cell_length_c 19.129
_cell_angle_alpha 89.93
_cell_angle_beta 90.006
_cell_angle_gamma 120.048
_space_group_name_H-M_alt 'P 1'
_space_group_name_Hall 'P 1'
loop_
    _symmetry_equiv_pos_as_xyz
    x,y,z
loop_
    _atom_site_label
    _atom_site_type_symbol
    _atom_site_fract_x
    _atom_site_fract_y
    _atom_site_fract_z
    _atom_site_occupancy
    Zn0     Zn   0.63580   0.12466   0.33008   1.000
    Zn1     Zn   0.48849   0.36409   0.33019   1.000
    Zn2     Zn   0.36416   0.48940   0.66975   1.000
    Zn3     Zn   0.51163   0.87560   0.66969   1.000
    Zn4     Zn   0.12459   0.63594   0.66987   1.000
    Zn5     Zn   0.66628   0.33318   0.26410   1.000
    Zn6     Zn   0.66601   0.33311   0.06940   1.000
    Zn7     Zn   0.33354   0.66694   0.73581   1.000
    Zn8     Zn   0.33328   0.66665   0.93058   1.000
    H9      H    0.79293   0.13540   0.43298   1.000
    H10     H    0.92507   0.20425   0.50540   1.000
    H11     H    0.98153   0.45624   0.43950   1.000
    H12     H    0.85603   0.46069   0.99395   1.000
    H13     H    0.08988   0.65599   0.08975   1.000
    H14     H    0.02383   0.61951   0.20808   1.000
    H15     H    0.34222   0.20680   0.43316   1.000
    H16     H    0.27874   0.07453   0.50552   1.000
    H17     H    0.47425   0.01811   0.43934   1.000
    H18     H    0.60334   0.14350   0.99388   1.000
    H19     H    0.56512   0.90996   0.08989   1.000
    H20     H    0.59471   0.97578   0.20818   1.000
    H21     H    0.86439   0.65665   0.43355   1.000
    H22     H    0.79573   0.72034   0.50554   1.000
    H23     H    0.54337   0.52598   0.43878   1.000
    H24     H    0.53868   0.39539   0.99390   1.000
    H25     H    0.34422   0.43500   0.08995   1.000
    H26     H    0.38063   0.40543   0.20827   1.000
    H27     H    0.65862   0.86481   0.56684   1.000
    H28     H    0.72157   0.79581   0.49446   1.000
    H29     H    0.52484   0.54392   0.56002   1.000
    H30     H    0.39566   0.53951   0.00000   1.000
    H31     H    0.43401   0.34442   0.91017   1.000
    Zn32    Zn   0.87488   0.51091   0.33033   1.000
    H33     H    0.40476   0.38106   0.79180   1.000
    H34     H    0.13535   0.79185   0.56639   1.000
    H35     H    0.20395   0.92436   0.49426   1.000
    H36     H    0.45636   0.98252   0.56115   1.000
    H37     H    0.45997   0.85651   0.00000   1.000
    H38     H    0.65558   0.09043   0.91020   1.000
    H39     H    0.61998   0.02453   0.79198   1.000
    H40     H    0.20713   0.34305   0.56710   1.000
    H41     H    0.07484   0.27944   0.49479   1.000
    H42     H    0.01748   0.47410   0.56090   1.000
    H43     H    0.14357   0.60509   0.00000   1.000
    H44     H    0.90931   0.56490   0.90989   1.000
    H45     H    0.97533   0.59405   0.79157   1.000
    C46     C    0.86593   0.34794   0.39893   1.000
    C47     C    0.81290   0.25820   0.39653   1.000
    C48     C    0.83387   0.20453   0.43447   1.000
    C49     C    0.90771   0.24365   0.47412   1.000
    C50     C    0.96129   0.33436   0.47763   1.000
    C51     C    0.94071   0.38706   0.43925   1.000
    C52     C    0.90236   0.51953   0.16671   1.000
    C53     C    0.85554   0.47629   0.10634   1.000
    C54     C    0.89256   0.49639   0.03951   1.000
    C55     C    0.97784   0.56067   0.03429   1.000
    C56     C    0.02399   0.60453   0.09577   1.000
    C57     C    0.98805   0.58537   0.16175   1.000
    C58     C    0.48173   0.13381   0.39891   1.000
    C59     C    0.44499   0.18679   0.39654   1.000
    C60     C    0.37033   0.16581   0.43455   1.000
    C61     C    0.33553   0.09193   0.47416   1.000
    C62     C    0.37263   0.03835   0.47756   1.000
    C63     C    0.44598   0.05898   0.43917   1.000
    C64     C    0.61604   0.09710   0.16670   1.000
    C65     C    0.61966   0.14395   0.10629   1.000
    C66     C    0.60262   0.10702   0.03948   1.000
    C67     C    0.58167   0.02188   0.03430   1.000
    C68     C    0.57943   0.97570   0.09587   1.000
    C69     C    0.59623   0.01155   0.16182   1.000
    C70     C    0.65158   0.51800   0.39883   1.000
    C71     C    0.74139   0.55443   0.39667   1.000
    C72     C    0.79522   0.62884   0.43472   1.000
    C73     C    0.75622   0.66378   0.47412   1.000
    C74     C    0.66545   0.62712   0.47722   1.000
    C75     C    0.61258   0.55396   0.43882   1.000
    C76     C    0.48019   0.38340   0.16678   1.000
    C77     C    0.52325   0.37959   0.10630   1.000
    C78     C    0.50316   0.39647   0.03951   1.000
    C79     C    0.43914   0.41775   0.03436   1.000
    C80     C    0.39549   0.42036   0.09591   1.000
    C81     C    0.41461   0.40354   0.16180   1.000
    C82     C    0.51803   0.65232   0.60060   1.000
    C83     C    0.55521   0.74208   0.60321   1.000
    C84     C    0.63009   0.79566   0.56533   1.000
    C85     C    0.66461   0.75645   0.52568   1.000
    C86     C    0.62711   0.66573   0.52210   1.000
    C87     C    0.55351   0.61311   0.56030   1.000
    C88     C    0.38336   0.48092   0.83320   1.000
    C89     C    0.37970   0.52404   0.89357   1.000
    C90     C    0.39650   0.50388   0.96043   1.000
    C91     C    0.41739   0.43964   0.96564   1.000
    C92     C    0.41972   0.39588   0.90415   1.000
    C93     C    0.40309   0.41513   0.83816   1.000
    C94     C    0.34820   0.86629   0.60128   1.000
    C95     C    0.25840   0.81276   0.60331   1.000
    C96     C    0.20451   0.83328   0.56518   1.000
    C97     C    0.24348   0.90728   0.52572   1.000
    C98     C    0.33424   0.96140   0.52260   1.000
    C99     C    0.38716   0.94124   0.56115   1.000
    C100    C    0.51984   0.90300   0.83332   1.000
    C101    C    0.47625   0.85615   0.89366   1.000
    C102    C    0.49590   0.89308   0.96047   1.000
    C103    C    0.56007   0.97832   0.96567   1.000
    C104    C    0.60423   0.02457   0.90422   1.000
    C105    C    0.58554   0.98866   0.83828   1.000
    C106    C    0.13346   0.48192   0.60124   1.000
    C107    C    0.18667   0.44542   0.60360   1.000
    C108    C    0.16593   0.37095   0.56570   1.000
    C109    C    0.09202   0.33606   0.52613   1.000
    C110    C    0.03815   0.37286   0.52270   1.000
    C111    C    0.05855   0.44603   0.56107   1.000
    C112    C    0.09698   0.61635   0.83320   1.000
    C113    C    0.14396   0.62056   0.89368   1.000
    C114    C    0.10694   0.60384   0.96052   1.000
    C115    C    0.02155   0.58244   0.96559   1.000
    C116    C    0.97527   0.57956   0.90390   1.000
    C117    C    0.01118   0.59613   0.83801   1.000
    N118    N    0.74583   0.24142   0.35366   1.000
    N119    N    0.75713   0.31660   0.33100   1.000
    N120    N    0.82907   0.38180   0.35711   1.000
    N121    N    0.84909   0.48407   0.22266   1.000
    N122    N    0.77387   0.42232   0.19805   1.000
    N123    N    0.77568   0.41612   0.12829   1.000
    N124    N    0.49526   0.25382   0.35361   1.000
    N125    N    0.55922   0.24260   0.33105   1.000
    N126    N    0.55256   0.17075   0.35716   1.000
    N127    N    0.63394   0.15027   0.22261   1.000
    N128    N    0.64763   0.22551   0.19794   1.000
    N129    N    0.63961   0.22376   0.12817   1.000
    N130    N    0.75807   0.50414   0.35388   1.000
    N131    N    0.68277   0.44037   0.33123   1.000
    N132    N    0.61757   0.44724   0.35716   1.000
    N133    N    0.51554   0.36549   0.22270   1.000
    N134    N    0.57710   0.35176   0.19805   1.000
    N135    N    0.58323   0.35970   0.12820   1.000
    N136    N    0.50509   0.75892   0.64619   1.000
    N137    N    0.44082   0.68371   0.66862   1.000
    N138    N    0.44714   0.61847   0.64232   1.000
    N139    N    0.36561   0.51637   0.77724   1.000
    N140    N    0.35210   0.57800   0.80180   1.000
    N141    N    0.36005   0.58413   0.87160   1.000
    N142    N    0.24173   0.74568   0.64609   1.000
    N143    N    0.31702   0.75741   0.66899   1.000
    N144    N    0.38222   0.82965   0.64318   1.000
    N145    N    0.48474   0.84978   0.77740   1.000
    N146    N    0.42290   0.77457   0.80200   1.000
    N147    N    0.41630   0.77635   0.87173   1.000
    N148    N    0.25370   0.49573   0.64647   1.000
    N149    N    0.24234   0.55955   0.66894   1.000
    N150    N    0.17035   0.55270   0.64286   1.000
    N151    N    0.15028   0.63410   0.77729   1.000
    N152    N    0.22570   0.64819   0.80201   1.000
    N153    N    0.22394   0.64061   0.87183   1.000
loop_
    _geom_bond_atom_site_label_1
    _geom_bond_atom_site_label_2
    _geom_bond_distance
    _geom_bond_site_symmetry_2
    _ccdc_geom_bond_type
    H43    C114      0.99703  1_554   S
    H37    C102      1.00008  1_554   S
    H30    C90       0.99995  1_554   S
    C55    C54       1.39413      .   S
    C55    C56       1.43115  1_655   S
    C55    C115      1.48110  1_654   S
    C67    C66       1.39422      .   S
    C67    C68       1.43208  1_545   S
    C67    C103      1.48044  1_544   S
    C79    C78       1.39414      .   S
    C79    C80       1.43130      .   S
    C79    C91       1.48132  1_554   S
    C66    C65       1.40386      .   S
    C66    H18       1.08947  1_554   S
    C78    C77       1.40272      .   S
    C78    H24       1.08933  1_554   S
    C54    C53       1.40351      .   S
    C54    H12       1.08954  1_554   S
    Zn6    N129      2.11129      .   S
    Zn6    N135      2.11169      .   S
    Zn6    N123      2.11598      .   S
    H13    C56       1.08992      .   S
    H19    C68       1.08993      .   S
    H25    C80       1.08993      .   S
    C56    C57       1.38165  1_455   S
    C68    C69       1.38178  1_565   S
    C80    C81       1.38021      .   S
    C65    N129      1.36796      .   S
    C65    C64       1.41444      .   S
    C77    N135      1.36785      .   S
    C77    C76       1.41540      .   S
    C53    N123      1.36773      .   S
    C53    C52       1.41463      .   S
    N129   N128      1.34117      .   S
    N135   N134      1.34234      .   S
    N123   N122      1.34106      .   S
    C57    C52       1.40694      .   S
    C57    H14       1.08934  1_655   S
    C81    C76       1.40708      .   S
    C81    H26       1.09075      .   S
    C69    C64       1.40695      .   S
    C69    H20       1.08962  1_545   S
    C64    N127      1.36567      .   S
    C52    N121      1.36540      .   S
    C76    N133      1.36541      .   S
    N128   N127      1.34150      .   S
    N128   Zn5       2.20458      .   S
    N122   N121      1.34124      .   S
    N122   Zn5       2.19887      .   S
    N134   N133      1.34151      .   S
    N134   Zn5       2.20233      .   S
    N127   Zn0       2.11079      .   S
    N121   Zn32      2.11441      .   S
    N133   Zn1       2.11076      .   S
    Zn5    N119      2.21726      .   S
    Zn5    N125      2.21162      .   S
    Zn5    N131      2.22013      .   S
    Zn0    N118      2.10193      .   S
    Zn0    N126      2.11806      .   S
    Zn1    N124      2.10737      .   S
    Zn1    N132      2.11204      .   S
    Zn32   N130      2.10171      .   S
    Zn32   N120      2.11367      .   S
    N119   N118      1.34224      .   S
    N119   N120      1.34078      .   S
    N125   N124      1.34172      .   S
    N125   N126      1.34032      .   S
    N131   N130      1.34188      .   S
    N131   N132      1.34072      .   S
    N124   C59       1.36592      .   S
    N118   C47       1.36610      .   S
    N130   C71       1.36614      .   S
    N120   C46       1.36642      .   S
    N132   C70       1.36650      .   S
    N126   C58       1.36605      .   S
    C47    C46       1.41426      .   S
    C47    C48       1.40741      .   S
    C59    C58       1.41431      .   S
    C59    C60       1.40736      .   S
    C71    C70       1.41419      .   S
    C71    C72       1.40726      .   S
    C70    C75       1.40241      .   S
    C58    C63       1.40212      .   S
    C46    C51       1.40221      .   S
    H9     C48       1.08944      .   S
    H15    C60       1.08954      .   S
    H21    C72       1.08944      .   S
    C48    C49       1.38308      .   S
    C60    C61       1.38305      .   S
    C72    C73       1.38299      .   S
    H23    C75       1.08946      .   S
    C75    C74       1.39322      .   S
    C63    H17       1.08953      .   S
    C63    C62       1.39300      .   S
    C51    H11       1.08945      .   S
    C51    C50       1.39322      .   S
    C49    C50       1.43028      .   S
    C49    H10       1.09011      .   S
    C73    C74       1.43022      .   S
    C73    H22       1.09024      .   S
    C61    C62       1.43031      .   S
    C61    H16       1.09030      .   S
    C74    C86       1.48080      .   S
    C62    C98       1.48078  1_545   S
    C50    C110      1.48020  1_655   S
    H35    C97       1.09035      .   S
    H28    C85       1.09028      .   S
    H41    C109      1.09022      .   S
    C86    C85       1.43030      .   S
    C86    C87       1.39307      .   S
    C98    C97       1.43019      .   S
    C98    C99       1.39318      .   S
    C110   C109      1.43035      .   S
    C110   C111      1.39341      .   S
    C85    C84       1.38324      .   S
    C97    C96       1.38291      .   S
    C109   C108      1.38295      .   S
    H29    C87       1.08944      .   S
    C87    C82       1.40230      .   S
    H42    C111      1.08954      .   S
    C111   C106      1.40225      .   S
    H36    C99       1.08946      .   S
    C99    C94       1.40227      .   S
    C96    H34       1.08945      .   S
    C96    C95       1.40730      .   S
    C84    H27       1.08944      .   S
    C84    C83       1.40761      .   S
    C108   H40       1.08952      .   S
    C108   C107      1.40681      .   S
    C82    C83       1.41434      .   S
    C82    N138      1.36645      .   S
    C106   C107      1.41415      .   S
    C106   N150      1.36623      .   S
    C94    C95       1.41426      .   S
    C94    N144      1.36651      .   S
    C83    N136      1.36644      .   S
    C95    N142      1.36583      .   S
    C107   N148      1.36630      .   S
    N138   N137      1.34053      .   S
    N138   Zn2       2.11442      .   S
    N150   N149      1.34037      .   S
    N150   Zn4       2.11424      .   S
    N144   N143      1.34069      .   S
    N144   Zn3       2.11517      .   S
    N142   N143      1.34182      .   S
    N142   Zn4       2.10282      .   S
    N136   N137      1.34225      .   S
    N136   Zn3       2.10433      .   S
    N148   N149      1.34162      .   S
    N148   Zn2       2.10406      .   S
    N137   Zn7       2.21700      .   S
    N149   Zn7       2.21994      .   S
    N143   Zn7       2.21097      .   S
    Zn3    N145      2.11428      .   S
    Zn2    N139      2.11102      .   S
    Zn4    N151      2.11047      .   S
    Zn7    N140      2.19842      .   S
    Zn7    N146      2.20489      .   S
    Zn7    N152      2.20358      .   S
    N139   N140      1.34120      .   S
    N139   C88       1.36552      .   S
    N151   N152      1.34147      .   S
    N151   C112      1.36547      .   S
    N145   N146      1.34127      .   S
    N145   C100      1.36563      .   S
    H45    C117      1.08918  1_655   S
    H33    C93       1.08976      .   S
    H39    C105      1.08962  1_545   S
    N140   N141      1.34167      .   S
    N146   N147      1.34107      .   S
    N152   N153      1.34120      .   S
    C88    C93       1.40694      .   S
    C88    C89       1.41445      .   S
    C112   C117      1.40693      .   S
    C112   C113      1.41440      .   S
    C100   C105      1.40699      .   S
    C100   C101      1.41450      .   S
    C117   C116      1.37999  1_455   S
    C93    C92       1.38167      .   S
    C105   C104      1.38185  1_565   S
    N141   C89       1.36802      .   S
    N141   Zn8       2.11320      .   S
    N147   C101      1.36769      .   S
    N147   Zn8       2.11482      .   S
    N153   C113      1.36790      .   S
    N153   Zn8       2.11180      .   S
    C89    C90       1.40383      .   S
    C101   C102      1.40374      .   S
    C113   C114      1.40375      .   S
    C116   H44       1.09009      .   S
    C116   C115      1.43230  1_655   S
    C92    H31       1.08992      .   S
    C92    C91       1.43127      .   S
    C104   H38       1.08981      .   S
    C104   C103      1.43123  1_545   S
    C90    C91       1.39413      .   S
    C102   C103      1.39407      .   S
    C114   C115      1.39416      .   S
