# CIF file generated by openbabel 2.4.90, see http://openbabel.sf.net
data_I
_chemical_name_common ''
_cell_length_a 18.077
_cell_length_b 18.099
_cell_length_c 19.129
_cell_angle_alpha 89.93
_cell_angle_beta 90.006
_cell_angle_gamma 120.048
_space_group_name_H-M_alt 'P 1'
_space_group_name_Hall 'P 1'
loop_
    _symmetry_equiv_pos_as_xyz
    x,y,z
loop_
    _atom_site_label
    _atom_site_type_symbol
    _atom_site_fract_x
    _atom_site_fract_y
    _atom_site_fract_z
    _atom_site_occupancy
    Zr0     Zr   0.87488   0.51091   0.33033   1.000
    Zr1     Zr   0.63580   0.12466   0.33008   1.000
    Zr2     Zr   0.48849   0.36409   0.33019   1.000
    Zr3     Zr   0.36416   0.48940   0.66975   1.000
    Zr4     Zr   0.51163   0.87560   0.66969   1.000
    Zr5     Zr   0.12459   0.63594   0.66987   1.000
    Zr6     Zr   0.66628   0.33318   0.26410   1.000
    Zr7     Zr   0.66601   0.33311   0.06940   1.000
    Zr8     Zr   0.33354   0.66694   0.73581   1.000
    Zr9     Zr   0.33328   0.66665   0.93058   1.000
    N10     N    0.99970   0.56614   0.99969   1.000
    O11     O    0.93084   0.53181   0.13809   1.000
    O12     O    0.85989   0.47194   0.11538   1.000
    O13     O    0.86027   0.47038   0.04927   1.000
    O14     O    0.06857   0.60058   0.86164   1.000
    O15     O    0.13966   0.61185   0.88430   1.000
    O16     O    0.13915   0.60988   0.95045   1.000
    N17     N    0.36108   0.99983   0.50000   1.000
    O18     O    0.42648   0.15439   0.42095   1.000
    O19     O    0.48692   0.14386   0.39879   1.000
    O20     O    0.47763   0.07377   0.42181   1.000
    O21     O    0.27212   0.84532   0.57899   1.000
    O22     O    0.34318   0.85600   0.60120   1.000
    O23     O    0.40400   0.92623   0.57822   1.000
    N24     N    0.56589   0.00008   0.99975   1.000
    O25     O    0.60038   0.06877   0.13805   1.000
    O26     O    0.61142   0.13971   0.11539   1.000
    O27     O    0.60935   0.13926   0.04927   1.000
    O28     O    0.53204   0.93139   0.86165   1.000
    O29     O    0.47205   0.86042   0.88433   1.000
    O30     O    0.47034   0.86079   0.95045   1.000
    N31     N    0.63879   0.63883   0.49984   1.000
    O32     O    0.72763   0.57318   0.42097   1.000
    O33     O    0.65666   0.51280   0.39875   1.000
    O34     O    0.59591   0.52225   0.42176   1.000
    O35     O    0.57357   0.72804   0.57889   1.000
    O36     O    0.51298   0.65708   0.60103   1.000
    O37     O    0.52222   0.59638   0.57794   1.000
    N38     N    0.43363   0.43404   0.99973   1.000
    O39     O    0.46782   0.39941   0.13809   1.000
    O40     O    0.52766   0.38825   0.11540   1.000
    O41     O    0.52913   0.39022   0.04926   1.000
    O42     O    0.39926   0.46846   0.86161   1.000
    O43     O    0.38822   0.52825   0.88427   1.000
    O44     O    0.39015   0.52971   0.95041   1.000
    N45     N    0.99977   0.36122   0.50009   1.000
    O46     O    0.84529   0.27213   0.42098   1.000
    O47     O    0.85574   0.34305   0.39882   1.000
    O48     O    0.92587   0.40379   0.42190   1.000
    O49     O    0.15435   0.42689   0.57910   1.000
    O50     O    0.14386   0.48723   0.60123   1.000
    O51     O    0.07362   0.47777   0.57823   1.000
loop_
    _geom_bond_atom_site_label_1
    _geom_bond_atom_site_label_2
    _geom_bond_distance
    _geom_bond_site_symmetry_2
    _ccdc_geom_bond_type
    N10    O11       2.85774  1_556   S
    Zr0    O11       3.78194      .   S
    N10    O12       3.14143  1_556   S
    Zr6    O12       4.22269      .   S
    N10    O13       2.42434  1_556   S
    Zr7    O13       3.14850      .   S
    N10    O14       2.85171  1_655   S
    Zr5    O14       3.77329      .   S
    N10    O15       3.13981  1_655   S
    Zr8    O15       4.22391      .   S
    N10    O16       2.42265  1_655   S
    Zr9    O16       3.14695      .   S
    N17    O18       2.86145  1_565   S
    Zr2    O18       3.79457      .   S
    N17    O19       3.12542  1_565   S
    Zr6    O19       4.21257      .   S
    N17    O20       2.37466  1_565   S
    Zr1    O20       3.07603      .   S
    N17    O21       2.85940      .   S
    Zr5    O21       3.78941      .   S
    N17    O22       3.12616      .   S
    Zr8    O22       4.21320      .   S
    N17    O23       2.37595      .   S
    Zr4    O23       3.07684      .   S
    N24    O25       2.85733  1_556   S
    Zr1    O25       3.77979      .   S
    N24    O26       3.14437  1_556   S
    Zr6    O26       4.22878      .   S
    N24    O27       2.42557  1_556   S
    Zr7    O27       3.14828      .   S
    N24    O28       2.85395  1_545   S
    Zr4    O28       3.77818      .   S
    N24    O29       3.14020  1_545   S
    Zr8    O29       4.22438      .   S
    N24    O30       2.42344  1_545   S
    Zr9    O30       3.14872      .   S
    N31    O32       2.86062      .   S
    Zr0    O32       3.79092      .   S
    N31    O33       3.12971      .   S
    Zr6    O33       4.22152      .   S
    N31    O34       2.37769      .   S
    Zr2    O34       3.07857      .   S
    N31    O35       2.86296      .   S
    Zr4    O35       3.79604      .   S
    N31    O36       3.12768      .   S
    Zr8    O36       4.21719      .   S
    N31    O37       2.37469      .   S
    Zr3    O37       3.07408      .   S
    N38    O39       2.85709  1_556   S
    Zr2    O39       3.77957      .   S
    N38    O40       3.14281  1_556   S
    Zr6    O40       4.22575      .   S
    N38    O41       2.42391  1_556   S
    Zr7    O41       3.14645      .   S
    N38    O42       2.85272      .   S
    Zr3    O42       3.77531      .   S
    N38    O43       3.13878      .   S
    Zr8    O43       4.22014      .   S
    N38    O44       2.42189      .   S
    Zr9    O44       3.14520      .   S
    N45    O46       2.86075      .   S
    Zr1    O46       3.79162      .   S
    N45    O47       3.12782      .   S
    Zr6    O47       4.21762      .   S
    N45    O48       2.37539      .   S
    Zr0    O48       3.07546      .   S
    N45    O49       2.86054  1_655   S
    Zr3    O49       3.79177      .   S
    N45    O50       3.12885  1_655   S
    Zr8    O50       4.22055      .   S
    N45    O51       2.37765  1_655   S
    Zr5    O51       3.08016      .   S
