# CIF file generated by openbabel 2.4.90, see http://openbabel.sf.net
data_I
_chemical_name_common ''
_cell_length_a 18.077
_cell_length_b 18.099
_cell_length_c 19.129
_cell_angle_alpha 89.93
_cell_angle_beta 90.006
_cell_angle_gamma 120.048
_space_group_name_H-M_alt 'P 1'
_space_group_name_Hall 'P 1'
loop_
    _symmetry_equiv_pos_as_xyz
    x,y,z
loop_
    _atom_site_label
    _atom_site_type_symbol
    _atom_site_fract_x
    _atom_site_fract_y
    _atom_site_fract_z
    _atom_site_occupancy
    N0      N    0.99970   0.56614   0.99969   1.000
    N1      N    0.36108   0.99983   0.50000   1.000
    N2      N    0.56589   0.00008   0.99975   1.000
    N3      N    0.63879   0.63883   0.49984   1.000
    N4      N    0.43363   0.43404   0.99973   1.000
    N5      N    0.99977   0.36122   0.50009   1.000
    Zr6     Zr   0.87488   0.51091   0.33033   1.000
    O7      O    0.90037   0.45735   0.37612   1.000
    O8      O    0.80125   0.54204   0.37565   1.000
    O9      O    0.90286   0.52136   0.23421   1.000
    Zr10    Zr   0.63580   0.12466   0.33008   1.000
    O11     O    0.55672   0.09922   0.37595   1.000
    O12     O    0.61809   0.09672   0.23406   1.000
    O13     O    0.74055   0.19840   0.37553   1.000
    Zr14    Zr   0.48849   0.36409   0.33019   1.000
    O15     O    0.45749   0.25924   0.37557   1.000
    O16     O    0.47816   0.38175   0.23414   1.000
    O17     O    0.54220   0.44317   0.37597   1.000
    Zr18    Zr   0.36416   0.48940   0.66975   1.000
    O19     O    0.25925   0.45815   0.62442   1.000
    O20     O    0.44319   0.54289   0.62384   1.000
    O21     O    0.38171   0.47893   0.76568   1.000
    Zr22    Zr   0.51163   0.87560   0.66969   1.000
    O23     O    0.45782   0.90092   0.62395   1.000
    O24     O    0.52183   0.90350   0.76567   1.000
    O25     O    0.54260   0.80182   0.62429   1.000
    Zr26    Zr   0.12459   0.63594   0.66987   1.000
    O27     O    0.19836   0.74063   0.62443   1.000
    O28     O    0.09911   0.55685   0.62405   1.000
    O29     O    0.09658   0.61826   0.76575   1.000
    Zr30    Zr   0.66628   0.33318   0.26410   1.000
    O31     O    0.76101   0.33811   0.33146   1.000
    O32     O    0.59697   0.36071   0.18975   1.000
    O33     O    0.57660   0.23852   0.33144   1.000
    O34     O    0.63885   0.23644   0.18974   1.000
    O35     O    0.66147   0.42299   0.33143   1.000
    O36     O    0.76308   0.40256   0.18974   1.000
    Zr37    Zr   0.66601   0.33311   0.06940   1.000
    O38     O    0.59757   0.36167   0.05933   1.000
    O39     O    0.63768   0.23618   0.05933   1.000
    O40     O    0.76314   0.40175   0.05933   1.000
    Zr41    Zr   0.33354   0.66694   0.73581   1.000
    O42     O    0.33836   0.76147   0.66851   1.000
    O43     O    0.23870   0.57709   0.66852   1.000
    O44     O    0.40279   0.76368   0.81007   1.000
    O45     O    0.42326   0.66201   0.66842   1.000
    O46     O    0.36088   0.59760   0.81004   1.000
    O47     O    0.23660   0.63940   0.81006   1.000
    Zr48    Zr   0.33328   0.66665   0.93058   1.000
    O49     O    0.40181   0.76372   0.94052   1.000
    O50     O    0.36171   0.59818   0.94049   1.000
    O51     O    0.23622   0.63826   0.94051   1.000
loop_
    _geom_bond_atom_site_label_1
    _geom_bond_atom_site_label_2
    _geom_bond_distance
    _geom_bond_site_symmetry_2
    _ccdc_geom_bond_type
    Zr6    O7        1.53773      .   S
    N5     O7        3.87287      .   S
    Zr6    O8        1.89546      .   S
    N3     O8        4.74351      .   S
    Zr6    O9        1.89097      .   S
    N0     O9        4.73481  1_556   S
    Zr10   O11       1.53802      .   S
    N1     O11       3.87223  1_565   S
    Zr10   O12       1.88989      .   S
    N2     O12       4.73336  1_556   S
    Zr10   O13       1.89581      .   S
    N5     O13       4.74404      .   S
    Zr14   O15       1.89729      .   S
    N1     O15       4.74614  1_565   S
    Zr14   O16       1.88978      .   S
    N4     O16       4.73301  1_556   S
    Zr14   O17       1.53929      .   S
    N3     O17       3.87695      .   S
    Zr18   O19       1.89589      .   S
    N5     O19       4.74382  1_655   S
    Zr18   O20       1.53704      .   S
    N3     O20       3.87135      .   S
    Zr18   O21       1.88766      .   S
    N4     O21       4.72649      .   S
    Zr22   O23       1.53842      .   S
    N1     O23       3.87410      .   S
    Zr22   O24       1.88909      .   S
    N2     O24       4.72914  1_545   S
    Zr22   O25       1.89802      .   S
    N3     O25       4.74854      .   S
    Zr26   O27       1.89471      .   S
    N1     O27       4.74144      .   S
    Zr26   O28       1.54008      .   S
    N5     O28       3.87770  1_655   S
    Zr26   O29       1.88664      .   S
    N0     O29       4.72439  1_655   S
    Zr30   O31       2.10881      .   S
    N5     O31       5.23466      .   S
    Zr30   O32       2.11288      .   S
    N4     O32       5.25379  1_556   S
    Zr30   O33       2.10629      .   S
    N1     O33       5.22975  1_565   S
    Zr30   O34       2.11439      .   S
    N2     O34       5.25691  1_556   S
    Zr30   O35       2.11076      .   S
    N3     O35       5.23855      .   S
    Zr30   O36       2.11134      .   S
    N0     O36       5.25089  1_556   S
    Zr37   O38       1.57322      .   S
    N4     O38       3.95989  1_556   S
    Zr37   O39       1.57414      .   S
    N2     O39       3.96253  1_556   S
    Zr37   O40       1.57425      .   S
    N0     O40       3.96122  1_556   S
    Zr41   O42       2.10660      .   S
    N1     O42       5.23082      .   S
    Zr41   O43       2.11027      .   S
    N5     O43       5.23720  1_655   S
    Zr41   O44       2.11219      .   S
    N2     O44       5.25049  1_545   S
    Zr41   O45       2.10859      .   S
    N3     O45       5.23428      .   S
    Zr41   O46       2.11007      .   S
    N4     O46       5.24700      .   S
    Zr41   O47       2.11195      .   S
    N0     O47       5.24993  1_655   S
    Zr48   O49       1.57436      .   S
    N2     O49       3.96060  1_545   S
    Zr48   O50       1.57260      .   S
    N4     O50       3.95719      .   S
    Zr48   O51       1.57347      .   S
    N0     O51       3.95902  1_655   S
