# CIF file generated by openbabel 2.4.90, see http://openbabel.sf.net
data_I
_chemical_name_common ''
_cell_length_a 12.416
_cell_length_b 15.662
_cell_length_c 15.483
_cell_angle_alpha 89.974
_cell_angle_beta 89.987
_cell_angle_gamma 90.033
_space_group_name_H-M_alt 'P 1'
_space_group_name_Hall 'P 1'
loop_
    _symmetry_equiv_pos_as_xyz
    x,y,z
loop_
    _atom_site_label
    _atom_site_type_symbol
    _atom_site_fract_x
    _atom_site_fract_y
    _atom_site_fract_z
    _atom_site_occupancy
    Zr0     Zr   0.99998   0.00002   0.00000   1.000
    Zr1     Zr   0.49998   0.49997   0.50000   1.000
    Zr2     Zr   0.15690   0.99997   0.18490   1.000
    Zr3     Zr   0.84311   1.00000   0.81508   1.000
    Zr4     Zr   0.34311   0.50005   0.68492   1.000
    Zr5     Zr   0.65687   0.49993   0.31509   1.000
    N6      N    0.86673   0.27171   0.20488   1.000
    O7      O    0.98259   0.15825   0.19028   1.000
    O8      O    0.92918   0.15877   0.12557   1.000
    O9      O    0.78583   0.36250   0.24703   1.000
    N10     N    0.36674   0.22814   0.29510   1.000
    O11     O    0.48263   0.34161   0.30973   1.000
    O12     O    0.28583   0.13737   0.25293   1.000
    O13     O    0.42919   0.34112   0.37443   1.000
    N14     N    0.36674   0.77180   0.29493   1.000
    O15     O    0.42921   0.65882   0.37427   1.000
    O16     O    0.28585   0.86258   0.25285   1.000
    O17     O    0.48259   0.65831   0.30954   1.000
    N18     N    0.63324   0.22813   0.70511   1.000
    O19     O    0.71414   0.13737   0.74720   1.000
    O20     O    0.57078   0.34111   0.62575   1.000
    O21     O    0.51741   0.34164   0.69049   1.000
    N22     N    0.86681   0.72804   0.20511   1.000
    O23     O    0.98268   0.84156   0.19046   1.000
    O24     O    0.78586   0.63728   0.24721   1.000
    O25     O    0.92929   0.84106   0.12574   1.000
    N26     N    0.13319   0.72830   0.79515   1.000
    O27     O    0.01732   0.84171   0.80977   1.000
    O28     O    0.07076   0.84124   0.87446   1.000
    O29     O    0.21410   0.63750   0.75300   1.000
    N30     N    0.63324   0.77177   0.70486   1.000
    O31     O    0.51733   0.65833   0.69025   1.000
    O32     O    0.57078   0.65880   0.62555   1.000
    O33     O    0.71418   0.86256   0.74702   1.000
    N34     N    0.13322   0.27198   0.79488   1.000
    O35     O    0.01738   0.15842   0.80950   1.000
    O36     O    0.07073   0.15895   0.87423   1.000
    O37     O    0.21416   0.36273   0.75279   1.000
loop_
    _geom_bond_atom_site_label_1
    _geom_bond_atom_site_label_2
    _geom_bond_distance
    _geom_bond_site_symmetry_2
    _ccdc_geom_bond_type
    N6     O7        2.29808      .   S
    Zr2    O7        3.29278  1_465   S
    N6     O8        2.28936      .   S
    Zr0    O8        3.27726      .   S
    N6     O9        1.85984      .   S
    Zr5    O9        2.88314      .   S
    N10    O11       2.29732      .   S
    Zr5    O11       3.29076      .   S
    N10    O12       1.85906      .   S
    Zr2    O12       2.88122  1_565   S
    N10    O13       2.28956      .   S
    Zr1    O13       3.27785      .   S
    N14    O15       2.28942      .   S
    Zr1    O15       3.27886      .   S
    N14    O16       1.85902      .   S
    Zr2    O16       2.88150      .   S
    N14    O17       2.29827      .   S
    Zr5    O17       3.29379      .   S
    N18    O19       1.85888      .   S
    Zr3    O19       2.88106  1_565   S
    N18    O20       2.28957      .   S
    Zr1    O20       3.27915      .   S
    N18    O21       2.29844      .   S
    Zr4    O21       3.29436      .   S
    N22    O23       2.29749      .   S
    Zr2    O23       3.29180  1_455   S
    N22    O24       1.85817      .   S
    Zr5    O24       2.87939      .   S
    N22    O25       2.28937      .   S
    Zr0    O25       3.27889  1_545   S
    N26    O27       2.29771      .   S
    Zr3    O27       3.29195  1_655   S
    N26    O28       2.28934      .   S
    Zr0    O28       3.27726  1_644   S
    N26    O29       1.86001      .   S
    Zr4    O29       2.88373      .   S
    N30    O31       2.29715      .   S
    Zr4    O31       3.29015      .   S
    N30    O32       2.28931      .   S
    Zr1    O32       3.27753      .   S
    N30    O33       1.85930      .   S
    Zr3    O33       2.88199      .   S
    N34    O35       2.29775      .   S
    Zr3    O35       3.29229  1_665   S
    N34    O36       2.28937      .   S
    Zr0    O36       3.27903  1_654   S
    N34    O37       1.85790      .   S
    Zr4    O37       2.87864      .   S
