# CIF file generated by openbabel 2.4.90, see http://openbabel.sf.net
data_I
_chemical_name_common ''
_cell_length_a 6.82
_cell_length_b 9.31423
_cell_length_c 10.1835
_cell_angle_alpha 67.1928
_cell_angle_beta 81.436
_cell_angle_gamma 73.461
_space_group_name_H-M_alt 'P 1'
_space_group_name_Hall 'P 1'
loop_
    _symmetry_equiv_pos_as_xyz
    x,y,z
loop_
    _atom_site_label
    _atom_site_type_symbol
    _atom_site_fract_x
    _atom_site_fract_y
    _atom_site_fract_z
    _atom_site_occupancy
    N0      N    0.24731   0.78906   0.00021   1.000
    N1      N    0.75268   0.21097   0.99978   1.000
    Zr2     Zr   0.75515   0.54483   0.38187   1.000
    O3      O    0.58216   0.61276   0.28574   1.000
    O4      O    0.92415   0.60107   0.28520   1.000
    Zr5     Zr   0.24482   0.45520   0.61812   1.000
    O6      O    0.41782   0.38727   0.71425   1.000
    O7      O    0.07583   0.39896   0.71479   1.000
    O8      O    0.75328   0.44914   0.56687   1.000
    O9      O    0.24670   0.55089   0.43312   1.000
    O10     O    0.75473   0.47153   0.26816   1.000
    O11     O    0.24524   0.52850   0.73183   1.000
loop_
    _geom_bond_atom_site_label_1
    _geom_bond_atom_site_label_2
    _geom_bond_distance
    _geom_bond_site_symmetry_2
    _ccdc_geom_bond_type
    Zr2    O3        1.47969      .   S
    N0     O3        3.53655      .   S
    Zr2    O4        1.47578      .   S
    N0     O4        3.56349  1_455   S
    Zr5    O6        1.47971      .   S
    N1     O6        3.53659      .   S
    Zr5    O7        1.47575      .   S
    N1     O7        3.56344  1_655   S
    Zr2    O8        1.74389      .   S
    N1     O8        4.09565      .   S
    N0     O9        4.09566      .   S
    Zr5    O9        1.74390      .   S
    N1     O10       4.30500  1_556   S
    Zr2    O10       1.55630      .   S
    Zr5    O11       1.55632      .   S
    N0     O11       4.30501  1_554   S
