# CIF file generated by openbabel 2.4.90, see http://openbabel.sf.net
data_I
_chemical_name_common ''
_cell_length_a 6.82
_cell_length_b 9.31423
_cell_length_c 10.1835
_cell_angle_alpha 67.1928
_cell_angle_beta 81.436
_cell_angle_gamma 73.461
_space_group_name_H-M_alt 'P 1'
_space_group_name_Hall 'P 1'
loop_
    _symmetry_equiv_pos_as_xyz
    x,y,z
loop_
    _atom_site_label
    _atom_site_type_symbol
    _atom_site_fract_x
    _atom_site_fract_y
    _atom_site_fract_z
    _atom_site_occupancy
    N0      N    0.24731   0.78906   0.00021   1.000
    N1      N    0.75268   0.21097   0.99978   1.000
    Zr2     Zr   0.75515   0.54483   0.38187   1.000
    O3      O    0.58216   0.61276   0.28574   1.000
    O4      O    0.92415   0.60107   0.28520   1.000
    O5      O    0.73678   0.44330   0.56660   1.000
    O6      O    0.76978   0.45498   0.56713   1.000
    O7      O    0.75284   0.49614   0.26860   1.000
    O8      O    0.75626   0.43267   0.27920   1.000
    O9      O    0.75700   0.46118   0.25624   1.000
    Zr10    Zr   0.24482   0.45520   0.61812   1.000
    O11     O    0.26320   0.55674   0.43339   1.000
    O12     O    0.41782   0.38727   0.71425   1.000
    O13     O    0.24714   0.50389   0.73139   1.000
    O14     O    0.24372   0.56736   0.72079   1.000
    O15     O    0.24298   0.53886   0.74375   1.000
    O16     O    0.07583   0.39896   0.71479   1.000
    O17     O    0.23019   0.54505   0.43286   1.000
loop_
    _geom_bond_atom_site_label_1
    _geom_bond_atom_site_label_2
    _geom_bond_distance
    _geom_bond_site_symmetry_2
    _ccdc_geom_bond_type
    Zr2    O3        1.47969      .   S
    N0     O3        3.53655      .   S
    Zr2    O4        1.47578      .   S
    N0     O4        3.56349  1_455   S
    Zr2    O5        1.75124      .   S
    N1     O5        4.09417      .   S
    Zr2    O6        1.74761      .   S
    N1     O6        4.10185      .   S
    Zr2    O7        1.39699      .   S
    N1     O7        4.49322  1_556   S
    Zr2    O8        1.73916      .   S
    N1     O8        4.11902  1_556   S
    Zr2    O9        1.73391      .   S
    N1     O9        4.12720  1_556   S
    Zr10   O11       1.75125      .   S
    N0     O11       4.09418      .   S
    Zr10   O12       1.47971      .   S
    N1     O12       3.53659      .   S
    Zr10   O13       1.39702      .   S
    N0     O13       4.49322  1_554   S
    Zr10   O14       1.73916      .   S
    N0     O14       4.11905  1_554   S
    Zr10   O15       1.73392      .   S
    N0     O15       4.12722  1_554   S
    Zr10   O16       1.47575      .   S
    N1     O16       3.56344  1_655   S
    Zr10   O17       1.74761      .   S
    N0     O17       4.10186      .   S
