# CIF file generated by openbabel 2.4.90, see http://openbabel.sf.net
data_I
_chemical_name_common ''
_cell_length_a 6.82
_cell_length_b 9.31423
_cell_length_c 10.1835
_cell_angle_alpha 67.1928
_cell_angle_beta 81.436
_cell_angle_gamma 73.461
_space_group_name_H-M_alt 'P 1'
_space_group_name_Hall 'P 1'
loop_
    _symmetry_equiv_pos_as_xyz
    x,y,z
loop_
    _atom_site_label
    _atom_site_type_symbol
    _atom_site_fract_x
    _atom_site_fract_y
    _atom_site_fract_z
    _atom_site_occupancy
    C0      C    0.24482   0.45520   0.61812   1.000
    C1      C    0.75515   0.54483   0.38187   1.000
    C2      C    0.24998   0.27303   0.94651   1.000
    C3      C    0.22241   0.47739   0.09853   1.000
    C4      C    0.24411   0.91274   0.74018   1.000
    C5      C    0.27451   0.89302   0.16728   1.000
    C6      C    0.75002   0.72701   0.05349   1.000
    C7      C    0.77758   0.52264   0.90147   1.000
    C8      C    0.75589   0.08729   0.25981   1.000
    C9      C    0.72549   0.10701   0.83270   1.000
    C10     C    0.25013   0.67567   0.14952   1.000
    C11     C    0.23436   0.60141   0.05684   1.000
    C12     C    0.23739   0.68587   0.90923   1.000
    C13     C    0.24599   0.84703   0.85492   1.000
    C14     C    0.25568   0.92289   0.94768   1.000
    C15     C    0.26257   0.83561   0.09490   1.000
    C16     C    0.25378   0.58804   0.30729   1.000
    C17     C    0.23037   0.60573   0.80820   1.000
    C18     C    0.25723   0.09554   0.89018   1.000
    C19     C    0.74984   0.32437   0.85046   1.000
    C20     C    0.76561   0.39862   0.94315   1.000
    C21     C    0.76259   0.31417   0.09076   1.000
    C22     C    0.75399   0.15301   0.14506   1.000
    C23     C    0.74431   0.07714   0.05231   1.000
    C24     C    0.73741   0.16442   0.90508   1.000
    C25     C    0.74620   0.41200   0.69270   1.000
    C26     C    0.76962   0.39430   0.19179   1.000
    C27     C    0.74275   0.90450   0.10982   1.000
    C28     C    0.38689   0.59978   0.37613   1.000
    C29     C    0.12282   0.50627   0.37183   1.000
    C30     C    0.22511   0.45673   0.85896   1.000
    C31     C    0.23105   0.68480   0.67527   1.000
    C32     C    0.25606   0.15360   0.99049   1.000
    C33     C    0.25838   0.17703   0.76011   1.000
    C34     C    0.61309   0.40026   0.62386   1.000
    C35     C    0.87716   0.49376   0.62816   1.000
    C36     C    0.77487   0.54330   0.14104   1.000
    C37     C    0.76894   0.31522   0.32472   1.000
    C38     C    0.74395   0.84644   0.00951   1.000
    C39     C    0.74160   0.82302   0.23989   1.000
    O40     O    0.74698   0.78673   0.03150   1.000
    O41     O    0.74335   0.87547   0.05966   1.000
    O42     O    0.74353   0.99082   0.08106   1.000
    O43     O    0.74915   0.11507   0.09868   1.000
    O44     O    0.74086   0.12078   0.97869   1.000
    O45     O    0.22839   0.53940   0.07768   1.000
    O46     O    0.24225   0.63854   0.10318   1.000
    O47     O    0.23587   0.64364   0.98303   1.000
    O48     O    0.75829   0.23359   0.11791   1.000
    O49     O    0.76610   0.35423   0.14127   1.000
    O50     O    0.76410   0.35639   0.01695   1.000
    O51     O    0.25635   0.75564   0.12221   1.000
    O52     O    0.26854   0.86431   0.13109   1.000
    O53     O    0.25912   0.87925   0.02129   1.000
    O54     O    0.74217   0.86376   0.17485   1.000
    O55     O    0.77225   0.46880   0.16641   1.000
    O56     O    0.75494   0.12015   0.20243   1.000
    O57     O    0.25195   0.63185   0.22840   1.000
    O58     O    0.76928   0.35476   0.25825   1.000
    O59     O    0.74838   0.68393   0.31088   1.000
    O60     O    0.18830   0.54715   0.33956   1.000
    O61     O    0.32033   0.59391   0.34171   1.000
    O62     O    0.76205   0.43003   0.35330   1.000
    O63     O    0.23793   0.57000   0.64669   1.000
    O64     O    0.25160   0.31612   0.68911   1.000
    O65     O    0.67964   0.40613   0.65828   1.000
    O66     O    0.81168   0.45288   0.66043   1.000
    O67     O    0.23071   0.64527   0.74174   1.000
    O68     O    0.74802   0.36818   0.77158   1.000
    O69     O    0.24505   0.87989   0.79755   1.000
    O70     O    0.25781   0.13629   0.82514   1.000
    O71     O    0.22774   0.53123   0.83358   1.000
    O72     O    0.23388   0.64580   0.85872   1.000
    O73     O    0.73145   0.13572   0.86889   1.000
    O74     O    0.74362   0.24439   0.87777   1.000
    O75     O    0.75773   0.36149   0.89681   1.000
    O76     O    0.24169   0.76645   0.88208   1.000
    O77     O    0.25083   0.88496   0.90130   1.000
    O78     O    0.25646   0.00922   0.91893   1.000
    O79     O    0.25665   0.12457   0.94033   1.000
    O80     O    0.77160   0.46063   0.92231   1.000
    O81     O    0.25302   0.21331   0.96850   1.000
    O82     O    0.31585   0.52749   0.49712   1.000
    O83     O    0.57102   0.57231   0.37900   1.000
    O84     O    0.18382   0.48073   0.49497   1.000
    O85     O    0.93899   0.52555   0.37685   1.000
    O86     O    0.23496   0.45596   0.73854   1.000
    O87     O    0.42895   0.42773   0.62099   1.000
    O88     O    0.68412   0.47254   0.50287   1.000
    O89     O    0.06099   0.47448   0.62314   1.000
    O90     O    0.81615   0.51930   0.50502   1.000
    O91     O    0.76501   0.54407   0.26146   1.000
loop_
    _geom_bond_atom_site_label_1
    _geom_bond_atom_site_label_2
    _geom_bond_distance
    _geom_bond_site_symmetry_2
    _ccdc_geom_bond_type
    C38    O40       0.50811      .   S
    C6     O40       0.50811      .   S
    C38    O41       0.66319      .   S
    C27    O41       0.66319      .   S
    C23    O42       0.74272  1_545   S
    C27    O42       0.74272      .   S
    C23    O43       0.69975      .   S
    C22    O43       0.69975      .   S
    C23    O44       0.70094  1_554   S
    C24    O44       0.70094      .   S
    C11    O45       0.54416      .   S
    C3     O45       0.54416      .   S
    C11    O46       0.69989      .   S
    C10    O46       0.69989      .   S
    C11    O47       0.70037  1_554   S
    C12    O47       0.70037      .   S
    C21    O48       0.69988      .   S
    C22    O48       0.69988      .   S
    C21    O49       0.74971      .   S
    C26    O49       0.74971      .   S
    C21    O50       0.70035      .   S
    C20    O50       0.70035  1_556   S
    C15    O51       0.69846      .   S
    C10    O51       0.69846      .   S
    C15    O52       0.54407      .   S
    C5     O52       0.54407      .   S
    C15    O53       0.70091      .   S
    C14    O53       0.70091  1_556   S
    C27    O54       0.62280      .   S
    C39    O54       0.62280      .   S
    C36    O55       0.64446      .   S
    C26    O55       0.64446      .   S
    C22    O56       0.54445      .   S
    C8     O56       0.54445      .   S
    C10    O57       0.74697      .   S
    C16    O57       0.74697      .   S
    C26    O58       0.63290      .   S
    C37    O58       0.63290      .   S
    C39    O59       1.20537      .   S
    C1     O59       1.20537      .   S
    C16    O60       0.63913      .   S
    C29    O60       0.63913      .   S
    C16    O61       0.63896      .   S
    C28    O61       0.63896      .   S
    C37    O62       1.19956      .   S
    C1     O62       1.19956      .   S
    C0     O63       1.19952      .   S
    C31    O63       1.19952      .   S
    C0     O64       1.20530      .   S
    C33    O64       1.20530      .   S
    C34    O65       0.63895      .   S
    C25    O65       0.63895      .   S
    C35    O66       0.63913      .   S
    C25    O66       0.63913      .   S
    C31    O67       0.63290      .   S
    C17    O67       0.63290      .   S
    C25    O68       0.74695      .   S
    C19    O68       0.74695      .   S
    C4     O69       0.54445      .   S
    C13    O69       0.54445      .   S
    C33    O70       0.62281      .   S
    C18    O70       0.62281      .   S
    C17    O71       0.64446      .   S
    C30    O71       0.64446      .   S
    C17    O72       0.74970      .   S
    C12    O72       0.74970      .   S
    C9     O73       0.54407      .   S
    C24    O73       0.54407      .   S
    C19    O74       0.69847      .   S
    C24    O74       0.69847      .   S
    C19    O75       0.69990      .   S
    C20    O75       0.69990      .   S
    C13    O76       0.69989      .   S
    C12    O76       0.69989      .   S
    C13    O77       0.69975      .   S
    C14    O77       0.69975      .   S
    C18    O78       0.74277      .   S
    C14    O78       0.74277  1_565   S
    C18    O79       0.66319      .   S
    C32    O79       0.66319      .   S
    C7     O80       0.54415      .   S
    C20    O80       0.54415      .   S
    C2     O81       0.50811      .   S
    C32    O81       0.50811      .   S
    C28    O82       1.25340      .   S
    C0     O82       1.25340      .   S
    C28    O83       1.21059      .   S
    C1     O83       1.21059      .   S
    C29    O84       1.29232      .   S
    C0     O84       1.29232      .   S
    C29    O85       1.21104  1_455   S
    C1     O85       1.21104      .   S
    C30    O86       1.22078      .   S
    C0     O86       1.22078      .   S
    C34    O87       1.21059      .   S
    C0     O87       1.21059      .   S
    C34    O88       1.25338      .   S
    C1     O88       1.25338      .   S
    C35    O89       1.21101  1_655   S
    C0     O89       1.21101      .   S
    C35    O90       1.29233      .   S
    C1     O90       1.29233      .   S
    C36    O91       1.22074      .   S
    C1     O91       1.22074      .   S
