# CIF file generated by openbabel 2.4.90, see http://openbabel.sf.net
data_I
_chemical_name_common ''
_cell_length_a 14.565
_cell_length_b 15.855
_cell_length_c 18.856
_cell_angle_alpha 90.398
_cell_angle_beta 90.114
_cell_angle_gamma 90.004
_space_group_name_H-M_alt 'P 1'
_space_group_name_Hall 'P 1'
loop_
    _symmetry_equiv_pos_as_xyz
    x,y,z
loop_
    _atom_site_label
    _atom_site_type_symbol
    _atom_site_fract_x
    _atom_site_fract_y
    _atom_site_fract_z
    _atom_site_occupancy
    Zn0     Zn   0.34347   0.36341   0.03424   1.000
    Zn1     Zn   0.46927   0.07102   0.53826   1.000
    Zn2     Zn   0.65612   0.13676   0.53394   1.000
    Zn3     Zn   0.46859   0.56997   0.95675   1.000
    Zn4     Zn   0.65569   0.63422   0.96285   1.000
    Zn5     Zn   0.53076   0.92867   0.45859   1.000
    Zn6     Zn   0.34391   0.86311   0.46301   1.000
    Zn7     Zn   0.96901   0.92649   0.95922   1.000
    Zn8     Zn   0.15606   0.86245   0.96346   1.000
    Zn9     Zn   0.03139   0.56991   0.45696   1.000
    Zn10    Zn   0.84423   0.63420   0.46280   1.000
    Zn11    Zn   0.03086   0.07060   0.03807   1.000
    Zn12    Zn   0.84390   0.13595   0.03381   1.000
    Zn13    Zn   0.97214   0.42986   0.54021   1.000
    Zn14    Zn   0.15663   0.36351   0.53442   1.000
    H15     H    0.34785   0.50827   0.03321   1.000
    H16     H    0.65130   0.99220   0.53382   1.000
    Zn17    Zn   0.52788   0.42992   0.04018   1.000
    H18     H    0.64868   0.49026   0.96356   1.000
    H19     H    0.34861   0.00760   0.46309   1.000
    H20     H    0.15087   0.00632   0.96322   1.000
    H21     H    0.85107   0.49028   0.46356   1.000
    H22     H    0.84942   0.99160   0.03399   1.000
    H23     H    0.15232   0.50837   0.53346   1.000
    O24     O    0.40319   0.48083   0.00855   1.000
    O25     O    0.59581   0.01921   0.50913   1.000
    O26     O    0.59402   0.51842   0.98812   1.000
    O27     O    0.40414   0.98059   0.48772   1.000
    O28     O    0.09563   0.97942   0.98802   1.000
    O29     O    0.90588   0.51838   0.48812   1.000
    O30     O    0.90470   0.01831   0.00910   1.000
    O31     O    0.09683   0.48084   0.50883   1.000
loop_
    _geom_bond_atom_site_label_1
    _geom_bond_atom_site_label_2
    _geom_bond_distance
    _geom_bond_site_symmetry_2
    _ccdc_geom_bond_type
    O24    H15       1.02660      .   S
    O24    Zn3       1.97016  1_554   S
    O30    H22       1.02572  1_545   S
    O30    Zn7       1.96622  1_544   S
    Zn11   O28       1.96350  1_544   S
    Zn17   O26       1.97059  1_554   S
    Zn9    O31       1.96852      .   S
    Zn5    O25       1.96055  1_565   S
    H19    O27       1.02691  1_545   S
    H21    O29       1.02268      .   S
    O27    Zn1       1.95984  1_565   S
    O29    Zn13      1.97014      .   S
    O31    H23       1.02716      .   S
    O25    H16       1.02697  1_545   S
    Zn14   Zn13      2.88774  1_455   S
    H20    O28       1.02574  1_545   S
    H18    O26       1.02287      .   S
    O24    Zn17      2.07559      .   S
    O24    Zn0       2.11450      .   S
    O25    Zn1       2.09077      .   S
    O25    Zn2       2.10952      .   S
    O26    Zn3       2.08759      .   S
    O26    Zn4       2.10200      .   S
    O27    Zn5       2.09248      .   S
    O27    Zn6       2.10765      .   S
    O28    Zn7       2.09518  1_455   S
    O28    Zn8       2.10201      .   S
    O29    Zn9       2.08931  1_655   S
    O29    Zn10      2.10167      .   S
    O30    Zn11      2.08608  1_655   S
    O30    Zn12      2.11424      .   S
    O31    Zn13      2.07663  1_455   S
    O31    Zn14      2.11260      .   S
