# CIF file generated by openbabel 2.4.90, see http://openbabel.sf.net
data_I
_chemical_name_common ''
_cell_length_a 14.565
_cell_length_b 15.855
_cell_length_c 18.856
_cell_angle_alpha 90.398
_cell_angle_beta 90.114
_cell_angle_gamma 90.004
_space_group_name_H-M_alt 'P 1'
_space_group_name_Hall 'P 1'
loop_
    _symmetry_equiv_pos_as_xyz
    x,y,z
loop_
    _atom_site_label
    _atom_site_type_symbol
    _atom_site_fract_x
    _atom_site_fract_y
    _atom_site_fract_z
    _atom_site_occupancy
    N0      N    0.00900   0.28215   0.80262   1.000
    N1      N    0.50014   0.99717   0.00035   1.000
    N2      N    0.99169   0.21688   0.30321   1.000
    N3      N    0.49144   0.28313   0.30284   1.000
    N4      N    0.50800   0.71590   0.69404   1.000
    N5      N    0.49053   0.78275   0.19337   1.000
    N6      N    0.99950   0.49928   0.00044   1.000
    N7      N    0.99162   0.71515   0.19424   1.000
    N8      N    0.00932   0.78217   0.69367   1.000
    N9      N    0.50846   0.21684   0.80337   1.000
    N10     N    0.99995   0.99819   0.49837   1.000
    N11     N    0.50031   0.49974   0.49845   1.000
    Zr12    Zr   0.00131   0.49942   0.49854   1.000
    O13     O    0.82067   0.53036   0.49037   1.000
    O14     O    0.18097   0.46859   0.50669   1.000
    Zr15    Zr   0.00006   0.99889   0.99861   1.000
    O16     O    0.81993   0.02970   0.00710   1.000
    O17     O    0.18022   0.96725   0.99095   1.000
    Zr18    Zr   0.49867   0.49941   0.99843   1.000
    O19     O    0.31898   0.46839   0.00711   1.000
    O20     O    0.67925   0.53021   0.99082   1.000
    Zr21    Zr   0.49999   0.99990   0.49844   1.000
    O22     O    0.68012   0.03061   0.50655   1.000
    O23     O    0.31985   0.96832   0.49030   1.000
    O24     O    0.50852   0.60674   0.04622   1.000
    O25     O    0.48931   0.39233   0.95059   1.000
    O26     O    0.48385   0.41590   0.09647   1.000
    O27     O    0.51421   0.58290   0.90041   1.000
    O28     O    0.98502   0.08349   0.09632   1.000
    O29     O    0.00980   0.89133   0.04707   1.000
    O30     O    0.01521   0.91464   0.90085   1.000
    O31     O    0.99044   0.10626   0.95004   1.000
    O32     O    0.48467   0.91568   0.40052   1.000
    O33     O    0.51507   0.08406   0.59632   1.000
    O34     O    0.50983   0.10728   0.45008   1.000
    O35     O    0.49003   0.89233   0.54682   1.000
    O36     O    0.01072   0.39235   0.45062   1.000
    O37     O    0.98566   0.58270   0.40055   1.000
    O38     O    0.99144   0.60660   0.54636   1.000
    O39     O    0.01628   0.41565   0.59650   1.000
loop_
    _geom_bond_atom_site_label_1
    _geom_bond_atom_site_label_2
    _geom_bond_distance
    _geom_bond_site_symmetry_2
    _ccdc_geom_bond_type
    Zr12   O13       2.68075  1_455   S
    N11    O13       4.69406      .   S
    Zr12   O14       2.66640      .   S
    N11    O14       4.68028      .   S
    Zr15   O16       2.67361  1_466   S
    N1     O16       4.68747  1_565   S
    Zr15   O17       2.67561      .   S
    N1     O17       4.68661  1_554   S
    Zr18   O19       2.66850  1_556   S
    N6     O19       4.68045  1_655   S
    Zr18   O20       2.67939      .   S
    N6     O20       4.69351  1_554   S
    Zr21   O22       2.67220  1_565   S
    N10    O22       4.68935  1_565   S
    Zr21   O23       2.67494      .   S
    N10    O23       4.68612  1_655   S
    Zr18   O24       1.92514  1_556   S
    N5     O24       3.93072      .   S
    Zr18   O25       1.92166      .   S
    N9     O25       3.92713      .   S
    Zr18   O26       2.29195  1_556   S
    N3     O26       4.43816      .   S
    Zr18   O27       2.29251      .   S
    N4     O27       4.43946      .   S
    Zr15   O28       2.28220  1_466   S
    N2     O28       4.42551      .   S
    Zr15   O29       1.94533  1_556   S
    N7     O29       3.96039  1_655   S
    Zr15   O30       2.28005      .   S
    N8     O30       4.42323      .   S
    Zr15   O31       1.94369  1_465   S
    N0     O31       3.96075  1_455   S
    Zr21   O32       2.28161      .   S
    N5     O32       4.42656      .   S
    Zr21   O33       2.28024  1_565   S
    N9     O33       4.42376      .   S
    Zr21   O34       1.94241  1_565   S
    N3     O34       3.95706      .   S
    Zr21   O35       1.94526      .   S
    N4     O35       3.96288      .   S
    N2     O36       3.92844  1_655   S
    Zr12   O36       1.92255      .   S
    N7     O37       4.43459      .   S
    Zr12   O37       2.28961  1_455   S
    N8     O38       3.92706  1_455   S
    Zr12   O38       1.92368  1_455   S
    N0     O39       4.43989      .   S
    Zr12   O39       2.29249      .   S
