# CIF file generated by openbabel 2.4.90, see http://openbabel.sf.net
data_I
_chemical_name_common ''
_cell_length_a 14.565
_cell_length_b 15.855
_cell_length_c 18.856
_cell_angle_alpha 90.398
_cell_angle_beta 90.114
_cell_angle_gamma 90.004
_space_group_name_H-M_alt 'P 1'
_space_group_name_Hall 'P 1'
loop_
    _symmetry_equiv_pos_as_xyz
    x,y,z
loop_
    _atom_site_label
    _atom_site_type_symbol
    _atom_site_fract_x
    _atom_site_fract_y
    _atom_site_fract_z
    _atom_site_occupancy
    C0      C    0.52788   0.42992   0.04018   1.000
    C1      C    0.34347   0.36341   0.03424   1.000
    C2      C    0.46927   0.07102   0.53826   1.000
    C3      C    0.65612   0.13676   0.53394   1.000
    C4      C    0.46859   0.56997   0.95675   1.000
    C5      C    0.65569   0.63422   0.96285   1.000
    C6      C    0.53076   0.92867   0.45859   1.000
    C7      C    0.34391   0.86311   0.46301   1.000
    C8      C    0.96901   0.92649   0.95922   1.000
    C9      C    0.15606   0.86245   0.96346   1.000
    C10     C    0.03139   0.56991   0.45696   1.000
    C11     C    0.84423   0.63420   0.46280   1.000
    C12     C    0.03086   0.07060   0.03807   1.000
    C13     C    0.84390   0.13595   0.03381   1.000
    C14     C    0.97214   0.42986   0.54021   1.000
    C15     C    0.15663   0.36351   0.53442   1.000
    C16     C    0.34785   0.50827   0.03321   1.000
    C17     C    0.63337   0.29771   0.86425   1.000
    C18     C    0.65951   0.23569   0.74314   1.000
    C19     C    0.38791   0.12931   0.74586   1.000
    C20     C    0.36165   0.19131   0.86628   1.000
    C21     C    0.11084   0.61738   0.01121   1.000
    C22     C    0.05268   0.35192   0.01663   1.000
    C23     C    0.65130   0.99220   0.53382   1.000
    C24     C    0.36681   0.20217   0.36252   1.000
    C25     C    0.33985   0.26536   0.24258   1.000
    C26     C    0.61216   0.37028   0.24643   1.000
    C27     C    0.63935   0.30679   0.36556   1.000
    C28     C    0.88834   0.88191   0.50988   1.000
    C29     C    0.94724   0.14732   0.51773   1.000
    C30     C    0.64868   0.49026   0.96356   1.000
    C31     C    0.36480   0.70290   0.13268   1.000
    C32     C    0.33956   0.76504   0.25383   1.000
    C33     C    0.61211   0.86934   0.25070   1.000
    C34     C    0.63750   0.80711   0.13025   1.000
    C35     C    0.88816   0.38108   0.98563   1.000
    C36     C    0.94634   0.64653   0.00000   1.000
    C37     C    0.34861   0.00760   0.46309   1.000
    C38     C    0.63310   0.79698   0.63494   1.000
    C39     C    0.65950   0.73308   0.75467   1.000
    C40     C    0.38699   0.62870   0.74986   1.000
    C41     C    0.36044   0.69263   0.63088   1.000
    C42     C    0.11154   0.11766   0.48679   1.000
    C43     C    0.05261   0.85228   0.47889   1.000
    C44     C    0.15087   0.00632   0.96322   1.000
    C45     C    0.86623   0.79532   0.13427   1.000
    C46     C    0.83986   0.73183   0.25412   1.000
    C47     C    0.11292   0.62863   0.25083   1.000
    C48     C    0.13946   0.69225   0.13174   1.000
    C49     C    0.38817   0.11616   0.98608   1.000
    C50     C    0.44784   0.85090   0.00000   1.000
    C51     C    0.85107   0.49028   0.46356   1.000
    C52     C    0.13508   0.70220   0.63347   1.000
    C53     C    0.15985   0.76351   0.75507   1.000
    C54     C    0.88796   0.86923   0.75040   1.000
    C55     C    0.86295   0.80764   0.62958   1.000
    C56     C    0.61154   0.38155   0.48595   1.000
    C57     C    0.55338   0.64698   0.47990   1.000
    C58     C    0.84942   0.99160   0.03399   1.000
    C59     C    0.13375   0.20104   0.86235   1.000
    C60     C    0.16049   0.26467   0.74264   1.000
    C61     C    0.88808   0.36936   0.74615   1.000
    C62     C    0.86104   0.30525   0.86497   1.000
    C63     C    0.61212   0.88114   0.01034   1.000
    C64     C    0.55249   0.14642   0.01706   1.000
    C65     C    0.15232   0.50837   0.53346   1.000
    C66     C    0.86680   0.29802   0.36347   1.000
    C67     C    0.84087   0.23600   0.24225   1.000
    C68     C    0.11224   0.12914   0.24628   1.000
    C69     C    0.13829   0.19113   0.36681   1.000
    C70     C    0.38905   0.61795   0.51082   1.000
    C71     C    0.44720   0.35250   0.51692   1.000
    C72     C    0.47602   0.29284   0.94045   1.000
    C73     C    0.49558   0.24913   0.87183   1.000
    C74     C    0.58031   0.26054   0.83788   1.000
    C75     C    0.59476   0.22621   0.77071   1.000
    C76     C    0.52475   0.17994   0.73704   1.000
    C77     C    0.44121   0.16618   0.77213   1.000
    C78     C    0.42664   0.20066   0.83906   1.000
    C79     C    0.53727   0.14786   0.66315   1.000
    C80     C    0.18975   0.46621   0.03303   1.000
    C81     C    0.09119   0.48294   0.01604   1.000
    C82     C    0.06156   0.56613   0.00569   1.000
    C83     C    0.02857   0.41615   0.00862   1.000
    C84     C    0.52448   0.20618   0.43867   1.000
    C85     C    0.50497   0.24990   0.37051   1.000
    C86     C    0.41984   0.23922   0.33660   1.000
    C87     C    0.40494   0.27424   0.27013   1.000
    C88     C    0.47485   0.32061   0.23721   1.000
    C89     C    0.55892   0.33344   0.27221   1.000
    C90     C    0.57400   0.29812   0.33840   1.000
    C91     C    0.46159   0.35367   0.16411   1.000
    C92     C    0.80981   0.03352   0.53296   1.000
    C93     C    0.90829   0.01639   0.51592   1.000
    C94     C    0.93771   0.93307   0.50489   1.000
    C95     C    0.97111   0.08299   0.50918   1.000
    C96     C    0.52192   0.70650   0.05612   1.000
    C97     C    0.50304   0.75034   0.12486   1.000
    C98     C    0.41830   0.73961   0.15897   1.000
    C99     C    0.40434   0.77404   0.22617   1.000
    C100    C    0.47483   0.81979   0.25976   1.000
    C101    C    0.55840   0.83287   0.22452   1.000
    C102    C    0.57249   0.79825   0.15756   1.000
    C103    C    0.46262   0.85197   0.33367   1.000
    C104    C    0.80922   0.53238   0.96398   1.000
    C105    C    0.90781   0.51551   0.98088   1.000
    C106    C    0.93746   0.43233   0.99118   1.000
    C107    C    0.97045   0.58230   0.00000   1.000
    C108    C    0.47554   0.79355   0.55832   1.000
    C109    C    0.49487   0.74950   0.62640   1.000
    C110    C    0.57988   0.75987   0.66058   1.000
    C111    C    0.59449   0.72443   0.72695   1.000
    C112    C    0.52437   0.67806   0.75961   1.000
    C113    C    0.44043   0.66555   0.72434   1.000
    C114    C    0.42569   0.70117   0.65822   1.000
    C115    C    0.53715   0.64472   0.83274   1.000
    C116    C    0.19011   0.96616   0.46387   1.000
    C117    C    0.09158   0.98321   0.48077   1.000
    C118    C    0.06215   0.06653   0.49177   1.000
    C119    C    0.02875   0.91661   0.48747   1.000
    C120    C    0.02402   0.79246   0.05861   1.000
    C121    C    0.00475   0.74843   0.12658   1.000
    C122    C    0.91955   0.75855   0.16028   1.000
    C123    C    0.90497   0.72337   0.22669   1.000
    C124    C    0.97528   0.67748   0.25977   1.000
    C125    C    0.05939   0.66515   0.22494   1.000
    C126    C    0.07412   0.70054   0.15879   1.000
    C127    C    0.96260   0.64448   0.33293   1.000
    C128    C    0.30995   0.96436   0.96381   1.000
    C129    C    0.40852   0.98173   0.98066   1.000
    C130    C    0.43775   0.06519   0.99132   1.000
    C131    C    0.47155   0.91534   0.00000   1.000
    C132    C    0.97824   0.70658   0.55610   1.000
    C133    C    0.99714   0.75028   0.62493   1.000
    C134    C    0.08164   0.73902   0.65955   1.000
    C135    C    0.09532   0.77298   0.72698   1.000
    C136    C    0.02484   0.81885   0.76024   1.000
    C137    C    0.94160   0.83261   0.72446   1.000
    C138    C    0.92775   0.79838   0.65729   1.000
    C139    C    0.03671   0.85046   0.83437   1.000
    C140    C    0.69046   0.53270   0.46394   1.000
    C141    C    0.59192   0.51596   0.48084   1.000
    C142    C    0.56229   0.43282   0.49134   1.000
    C143    C    0.52931   0.58277   0.48804   1.000
    C144    C    0.97629   0.20467   0.93825   1.000
    C145    C    0.99550   0.24854   0.87015   1.000
    C146    C    0.08062   0.23811   0.83640   1.000
    C147    C    0.09542   0.27341   0.77006   1.000
    C148    C    0.02547   0.31989   0.73709   1.000
    C149    C    0.94139   0.33244   0.77193   1.000
    C150    C    0.92639   0.29678   0.83796   1.000
    C151    C    0.03865   0.35338   0.66413   1.000
    C152    C    0.69030   0.03300   0.03293   1.000
    C153    C    0.59180   0.01559   0.01582   1.000
    C154    C    0.56259   0.93213   0.00509   1.000
    C155    C    0.52878   0.08198   0.00874   1.000
    C156    C    0.02399   0.29287   0.44043   1.000
    C157    C    0.00448   0.24922   0.37171   1.000
    C158    C    0.91986   0.26076   0.33735   1.000
    C159    C    0.90553   0.22641   0.27013   1.000
    C160    C    0.97553   0.18000   0.23680   1.000
    C161    C    0.05896   0.16613   0.27229   1.000
    C162    C    0.07341   0.20063   0.33928   1.000
    C163    C    0.96301   0.14784   0.16289   1.000
    C164    C    0.31023   0.46673   0.53305   1.000
    C165    C    0.40868   0.48351   0.51599   1.000
    C166    C    0.43828   0.56666   0.50545   1.000
    C167    C    0.47127   0.41670   0.50876   1.000
    C168    C    0.40319   0.48083   0.00855   1.000
    C169    C    0.53984   0.33670   0.96886   1.000
    C170    C    0.39462   0.28466   0.96526   1.000
    C171    C    0.46898   0.10754   0.63581   1.000
    C172    C    0.61298   0.16318   0.63214   1.000
    C173    C    0.21470   0.38750   0.02800   1.000
    C174    C    0.24231   0.52636   0.04957   1.000
    C175    C    0.59581   0.01921   0.50913   1.000
    C176    C    0.46030   0.16270   0.46630   1.000
    C177    C    0.60585   0.21429   0.46388   1.000
    C178    C    0.52870   0.39614   0.13802   1.000
    C179    C    0.38648   0.33705   0.13231   1.000
    C180    C    0.78495   0.11219   0.52797   1.000
    C181    C    0.75728   0.97369   0.54949   1.000
    C182    C    0.59402   0.51842   0.98812   1.000
    C183    C    0.45741   0.66312   0.02803   1.000
    C184    C    0.60319   0.71416   0.03097   1.000
    C185    C    0.53099   0.89226   0.36096   1.000
    C186    C    0.38696   0.83675   0.36478   1.000
    C187    C    0.78463   0.61125   0.96908   1.000
    C188    C    0.75641   0.47246   0.94750   1.000
    C189    C    0.40414   0.98059   0.48772   1.000
    C190    C    0.53971   0.83714   0.53078   1.000
    C191    C    0.39417   0.78556   0.53306   1.000
    C192    C    0.46890   0.60384   0.85894   1.000
    C193    C    0.61281   0.65953   0.86434   1.000
    C194    C    0.21504   0.88752   0.46888   1.000
    C195    C    0.24261   0.00000   0.44743   1.000
    C196    C    0.09563   0.97942   0.98802   1.000
    C197    C    0.95926   0.83534   0.03075   1.000
    C198    C    0.10550   0.78533   0.03380   1.000
    C199    C    0.03099   0.60377   0.35934   1.000
    C200    C    0.88701   0.65939   0.36434   1.000
    C201    C    0.28518   0.88565   0.96899   1.000
    C202    C    0.25723   0.00000   0.94728   1.000
    C203    C    0.90588   0.51838   0.48812   1.000
    C204    C    0.04269   0.66318   0.52813   1.000
    C205    C    0.89694   0.71428   0.53080   1.000
    C206    C    0.96900   0.89205   0.86103   1.000
    C207    C    0.11148   0.83343   0.86633   1.000
    C208    C    0.71526   0.61151   0.46906   1.000
    C209    C    0.74308   0.47272   0.44745   1.000
    C210    C    0.90470   0.01831   0.00910   1.000
    C211    C    0.04111   0.16225   0.96641   1.000
    C212    C    0.89466   0.21167   0.96291   1.000
    C213    C    0.97151   0.39603   0.63806   1.000
    C214    C    0.11370   0.33697   0.63241   1.000
    C215    C    0.71499   0.11171   0.02784   1.000
    C216    C    0.74302   0.97336   0.04963   1.000
    C217    C    0.09683   0.48084   0.50883   1.000
    C218    C    0.96017   0.33668   0.46873   1.000
    C219    C    0.10542   0.28469   0.46544   1.000
    C220    C    0.03119   0.10743   0.13572   1.000
    C221    C    0.88724   0.16321   0.13172   1.000
    C222    C    0.28529   0.38801   0.52805   1.000
    C223    C    0.25773   0.52685   0.54963   1.000
    O224    O    0.95839   0.61441   0.00000   1.000
    O225    O    0.45970   0.88312   0.00000   1.000
    O226    O    0.01600   0.57421   0.00284   1.000
    O227    O    0.93913   0.54890   0.99044   1.000
    O228    O    0.51707   0.92373   0.00254   1.000
    O229    O    0.44003   0.94853   0.99033   1.000
    O230    O    0.58735   0.90663   0.00771   1.000
    O231    O    0.57719   0.97386   0.01045   1.000
    O232    O    0.08620   0.59175   0.00845   1.000
    O233    O    0.07637   0.52453   0.01086   1.000
    O234    O    0.37552   0.49455   0.02088   1.000
    O235    O    0.43589   0.52540   0.98265   1.000
    O236    O    0.05988   0.44954   0.01233   1.000
    O237    O    0.04062   0.38403   0.01262   1.000
    O238    O    0.98301   0.42424   0.99990   1.000
    O239    O    0.56029   0.04878   0.01228   1.000
    O240    O    0.54063   0.11420   0.01290   1.000
    O241    O    0.48326   0.07358   0.00003   1.000
    O242    O    0.87706   0.00495   0.02154   1.000
    O243    O    0.93685   0.97240   0.98416   1.000
    O244    O    0.64105   0.02429   0.02437   1.000
    O245    O    0.14047   0.47457   0.02453   1.000
    O246    O    0.70265   0.07235   0.03039   1.000
    O247    O    0.77944   0.12383   0.03082   1.000
    O248    O    0.20223   0.42685   0.03051   1.000
    O249    O    0.27908   0.37545   0.03112   1.000
    O250    O    0.48967   0.68481   0.04207   1.000
    O251    O    0.46300   0.61654   0.99239   1.000
    O252    O    0.99164   0.81390   0.04468   1.000
    O253    O    0.96413   0.88091   0.99498   1.000
    O254    O    0.56256   0.71033   0.04355   1.000
    O255    O    0.62944   0.67419   0.99691   1.000
    O256    O    0.71666   0.00318   0.04128   1.000
    O257    O    0.21603   0.49628   0.04130   1.000
    O258    O    0.06476   0.78889   0.04620   1.000
    O259    O    0.13078   0.82389   0.99863   1.000
    O260    O    0.86557   0.14958   0.08276   1.000
    O261    O    0.86928   0.17381   0.99836   1.000
    O262    O    0.36497   0.35023   0.08327   1.000
    O263    O    0.36904   0.32403   0.99975   1.000
    O264    O    0.03102   0.08901   0.08689   1.000
    O265    O    0.03598   0.11642   0.00224   1.000
    O266    O    0.06324   0.02501   0.01304   1.000
    O267    O    0.52829   0.41303   0.08910   1.000
    O268    O    0.53386   0.38331   0.00452   1.000
    O269    O    0.56095   0.47417   0.01415   1.000
    O270    O    0.51248   0.72842   0.09049   1.000
    O271    O    0.01438   0.77044   0.09259   1.000
    O272    O    0.53777   0.77429   0.14121   1.000
    O273    O    0.46067   0.74497   0.14191   1.000
    O274    O    0.03943   0.72448   0.14269   1.000
    O275    O    0.96215   0.75349   0.14343   1.000
    O276    O    0.60499   0.80268   0.14390   1.000
    O277    O    0.92512   0.15552   0.14730   1.000
    O278    O    0.10679   0.69639   0.14526   1.000
    O279    O    0.42403   0.34536   0.14821   1.000
    O280    O    0.39155   0.72125   0.14582   1.000
    O281    O    0.89289   0.77693   0.14727   1.000
    O282    O    0.99710   0.12763   0.14930   1.000
    O283    O    0.49514   0.37490   0.15106   1.000
    O284    O    0.56544   0.81556   0.19104   1.000
    O285    O    0.06676   0.68284   0.19187   1.000
    O286    O    0.41132   0.75682   0.19257   1.000
    O287    O    0.91226   0.74096   0.19348   1.000
    O288    O    0.96927   0.16392   0.19984   1.000
    O289    O    0.46822   0.33714   0.20066   1.000
    O290    O    0.58526   0.85110   0.23761   1.000
    O291    O    0.51661   0.82633   0.24214   1.000
    O292    O    0.08616   0.64689   0.23788   1.000
    O293    O    0.01734   0.67131   0.24235   1.000
    O294    O    0.37195   0.76954   0.24000   1.000
    O295    O    0.43958   0.79691   0.24296   1.000
    O296    O    0.87242   0.72760   0.24040   1.000
    O297    O    0.94012   0.70042   0.24323   1.000
    O298    O    0.94053   0.20320   0.25346   1.000
    O299    O    0.01724   0.17306   0.25454   1.000
    O300    O    0.43990   0.29742   0.25367   1.000
    O301    O    0.51688   0.32702   0.25471   1.000
    O302    O    0.87320   0.23120   0.25619   1.000
    O303    O    0.37239   0.26980   0.25635   1.000
    O304    O    0.08560   0.14763   0.25928   1.000
    O305    O    0.58554   0.35186   0.25932   1.000
    O306    O    0.46872   0.83588   0.29671   1.000
    O307    O    0.96894   0.66098   0.29635   1.000
    O308    O    0.41239   0.25673   0.30336   1.000
    O309    O    0.91269   0.24358   0.30374   1.000
    O310    O    0.56646   0.31578   0.30530   1.000
    O311    O    0.06618   0.18338   0.30578   1.000
    O312    O    0.99679   0.62412   0.34613   1.000
    O313    O    0.92480   0.65193   0.34863   1.000
    O314    O    0.49680   0.87211   0.34731   1.000
    O315    O    0.42479   0.84436   0.34922   1.000
    O316    O    0.39332   0.22069   0.34956   1.000
    O317    O    0.46240   0.24456   0.35355   1.000
    O318    O    0.89333   0.27939   0.35041   1.000
    O319    O    0.96217   0.25499   0.35453   1.000
    O320    O    0.60667   0.30245   0.35198   1.000
    O321    O    0.53948   0.27401   0.35445   1.000
    O322    O    0.10585   0.19588   0.35305   1.000
    O323    O    0.03894   0.22492   0.35550   1.000
    O324    O    0.03119   0.58684   0.40815   1.000
    O325    O    0.53087   0.91046   0.40977   1.000
    O326    O    0.86562   0.64679   0.41357   1.000
    O327    O    0.36543   0.84993   0.41389   1.000
    O328    O    0.51472   0.22804   0.40459   1.000
    O329    O    0.01423   0.27104   0.40607   1.000
    O330    O    0.56516   0.21023   0.45127   1.000
    O331    O    0.49239   0.18444   0.45248   1.000
    O332    O    0.06470   0.28878   0.45293   1.000
    O333    O    0.99208   0.31477   0.45458   1.000
    O334    O    0.21636   0.98308   0.45565   1.000
    O335    O    0.71677   0.50271   0.45570   1.000
    O336    O    0.06411   0.52537   0.48289   1.000
    O337    O    0.03704   0.61654   0.49254   1.000
    O338    O    0.56328   0.97394   0.48386   1.000
    O339    O    0.53524   0.88290   0.49468   1.000
    O340    O    0.77974   0.62285   0.46593   1.000
    O341    O    0.87058   0.67424   0.49680   1.000
    O342    O    0.27947   0.87531   0.46594   1.000
    O343    O    0.36904   0.82433   0.49804   1.000
    O344    O    0.37637   0.99409   0.47540   1.000
    O345    O    0.87847   0.50433   0.47584   1.000
    O346    O    0.20257   0.92684   0.46637   1.000
    O347    O    0.14084   0.97468   0.47232   1.000
    O348    O    0.63099   0.17552   0.49891   1.000
    O349    O    0.70286   0.57210   0.46650   1.000
    O350    O    0.64119   0.52433   0.47239   1.000
    O351    O    0.13102   0.32410   0.49993   1.000
    O352    O    0.46478   0.11686   0.50228   1.000
    O353    O    0.96615   0.38327   0.50447   1.000
    O354    O    0.04068   0.88444   0.48318   1.000
    O355    O    0.54134   0.61487   0.48397   1.000
    O356    O    0.06017   0.94991   0.48412   1.000
    O357    O    0.07686   0.02487   0.48627   1.000
    O358    O    0.56061   0.54936   0.48444   1.000
    O359    O    0.57710   0.47439   0.48609   1.000
    O360    O    0.58692   0.40718   0.48864   1.000
    O361    O    0.08684   0.09209   0.48928   1.000
    O362    O    0.98323   0.92484   0.49618   1.000
    O363    O    0.43671   0.02580   0.51299   1.000
    O364    O    0.48379   0.57472   0.49674   1.000
    O365    O    0.93901   0.47412   0.51416   1.000
    O366    O    0.51678   0.42476   0.50005   1.000
    O367    O    0.01663   0.07476   0.50048   1.000
    O368    O    0.91302   0.90749   0.50738   1.000
    O369    O    0.92300   0.97473   0.51040   1.000
    O370    O    0.41366   0.59230   0.50813   1.000
    O371    O    0.42348   0.52508   0.51072   1.000
    O372    O    0.43997   0.45010   0.51237   1.000
    O373    O    0.45924   0.38460   0.51284   1.000
    O374    O    0.12457   0.49460   0.52114   1.000
    O375    O    0.62355   0.00570   0.52147   1.000
    O376    O    0.93970   0.04969   0.51255   1.000
    O377    O    0.95917   0.11515   0.51345   1.000
    O378    O    0.85905   0.02495   0.52444   1.000
    O379    O    0.35945   0.47512   0.52452   1.000
    O380    O    0.79738   0.07285   0.53047   1.000
    O381    O    0.72054   0.12447   0.53096   1.000
    O382    O    0.29776   0.42737   0.53055   1.000
    O383    O    0.22096   0.37576   0.53123   1.000
    O384    O    0.01046   0.68488   0.54212   1.000
    O385    O    0.50762   0.81534   0.54455   1.000
    O386    O    0.93759   0.71043   0.54345   1.000
    O387    O    0.78355   0.00360   0.54122   1.000
    O388    O    0.28398   0.49679   0.54134   1.000
    O389    O    0.43485   0.78955   0.54569   1.000
    O390    O    0.63455   0.14997   0.58304   1.000
    O391    O    0.06439   0.39668   0.53731   1.000
    O392    O    0.13516   0.35024   0.58341   1.000
    O393    O    0.46912   0.08928   0.58703   1.000
    O394    O    0.97182   0.41294   0.58913   1.000
    O395    O    0.98769   0.72843   0.59052   1.000
    O396    O    0.48520   0.77152   0.59236   1.000
    O397    O    0.96244   0.77433   0.64111   1.000
    O398    O    0.03939   0.74465   0.64224   1.000
    O399    O    0.46028   0.72533   0.64231   1.000
    O400    O    0.53737   0.75468   0.64349   1.000
    O401    O    0.89535   0.80301   0.64344   1.000
    O402    O    0.39306   0.69690   0.64455   1.000
    O403    O    0.57512   0.15552   0.64764   1.000
    O404    O    0.07617   0.34517   0.64827   1.000
    O405    O    0.10836   0.72061   0.64651   1.000
    O406    O    0.60649   0.77842   0.64776   1.000
    O407    O    0.50312   0.12770   0.64948   1.000
    O408    O    0.00508   0.37470   0.65109   1.000
    O409    O    0.93467   0.81549   0.69087   1.000
    O410    O    0.43306   0.68336   0.69128   1.000
    O411    O    0.08848   0.75600   0.69326   1.000
    O412    O    0.58718   0.74215   0.69376   1.000
    O413    O    0.53101   0.16390   0.70009   1.000
    O414    O    0.03206   0.33663   0.70061   1.000
    O415    O    0.41371   0.64712   0.73710   1.000
    O416    O    0.48240   0.67180   0.74197   1.000
    O417    O    0.91478   0.85092   0.73743   1.000
    O418    O    0.98322   0.82573   0.74235   1.000
    O419    O    0.62699   0.72875   0.74081   1.000
    O420    O    0.55943   0.70124   0.74328   1.000
    O421    O    0.12759   0.76824   0.74102   1.000
    O422    O    0.06008   0.79591   0.74361   1.000
    O423    O    0.55976   0.20307   0.75387   1.000
    O424    O    0.48298   0.17306   0.75458   1.000
    O425    O    0.06044   0.29665   0.75357   1.000
    O426    O    0.98343   0.32616   0.75451   1.000
    O427    O    0.12795   0.26904   0.75635   1.000
    O428    O    0.62714   0.23095   0.75692   1.000
    O429    O    0.41456   0.14774   0.75899   1.000
    O430    O    0.91473   0.35090   0.75904   1.000
    O431    O    0.53076   0.66139   0.79617   1.000
    O432    O    0.03077   0.83465   0.79730   1.000
    O433    O    0.08802   0.25576   0.80323   1.000
    O434    O    0.58753   0.24337   0.80429   1.000
    O435    O    0.93389   0.31461   0.80494   1.000
    O436    O    0.43393   0.18342   0.80559   1.000
    O437    O    0.50303   0.62428   0.84584   1.000
    O438    O    0.57498   0.65212   0.84854   1.000
    O439    O    0.00285   0.87125   0.84770   1.000
    O440    O    0.07410   0.84194   0.85035   1.000
    O441    O    0.10718   0.21957   0.84937   1.000
    O442    O    0.03806   0.24332   0.85328   1.000
    O443    O    0.60684   0.27912   0.85106   1.000
    O444    O    0.53795   0.25483   0.85485   1.000
    O445    O    0.89371   0.30101   0.85147   1.000
    O446    O    0.96095   0.27266   0.85405   1.000
    O447    O    0.39414   0.19598   0.85267   1.000
    O448    O    0.46111   0.22489   0.85545   1.000
    O449    O    0.46874   0.58690   0.90784   1.000
    O450    O    0.96901   0.90927   0.91012   1.000
    O451    O    0.63425   0.64687   0.91359   1.000
    O452    O    0.13377   0.84794   0.91489   1.000
    O453    O    0.98589   0.22660   0.90420   1.000
    O454    O    0.48580   0.27098   0.90614   1.000
    O455    O    0.93547   0.20817   0.95058   1.000
    O456    O    0.00870   0.18346   0.95233   1.000
    O457    O    0.43532   0.28875   0.95285   1.000
    O458    O    0.50793   0.31477   0.95465   1.000
    O459    O    0.28359   0.98218   0.95554   1.000
    O460    O    0.78281   0.50242   0.95574   1.000
    O461    O    0.72016   0.62273   0.96596   1.000
    O462    O    0.12325   0.99287   0.97562   1.000
    O463    O    0.22062   0.87405   0.96622   1.000
    O464    O    0.62135   0.50434   0.97584   1.000
    O465    O    0.29756   0.92500   0.96640   1.000
    O466    O    0.35923   0.97304   0.97223   1.000
    O467    O    0.79692   0.57181   0.96653   1.000
    O468    O    0.85851   0.52394   0.97243   1.000
    O469    O    0.42313   0.02346   0.98599   1.000
    O470    O    0.92263   0.47392   0.98603   1.000
    O471    O    0.91281   0.40670   0.98840   1.000
    O472    O    0.41296   0.09067   0.98870   1.000
    O473    O    0.46554   0.45537   0.02437   1.000
    O474    O    0.37333   0.42212   0.02139   1.000
    O475    O    0.53254   0.04511   0.52369   1.000
    O476    O    0.62596   0.07798   0.52153   1.000
    O477    O    0.53130   0.54419   0.97243   1.000
    O478    O    0.62486   0.57632   0.97548   1.000
    O479    O    0.46745   0.95463   0.47315   1.000
    O480    O    0.37402   0.92185   0.47536   1.000
    O481    O    0.03232   0.95295   0.97362   1.000
    O482    O    0.12584   0.92093   0.97574   1.000
    O483    O    0.96863   0.54414   0.47254   1.000
    O484    O    0.87506   0.57629   0.47546   1.000
    O485    O    0.96778   0.04445   0.02358   1.000
    O486    O    0.87430   0.07713   0.02145   1.000
    O487    O    0.03448   0.45535   0.52452   1.000
    O488    O    0.12673   0.42217   0.52163   1.000
loop_
    _geom_bond_atom_site_label_1
    _geom_bond_atom_site_label_2
    _geom_bond_distance
    _geom_bond_site_symmetry_2
    _ccdc_geom_bond_type
    C36    O224      0.53862      .   S
    C107   O224      0.53862      .   S
    C50    O225      0.53923      .   S
    C131   O225      0.53923      .   S
    C107   O226      0.67788  1_655   S
    C82    O226      0.67788      .   S
    C107   O227      0.72059  1_554   S
    C105   O227      0.72059      .   S
    C131   O228      0.67776      .   S
    C154   O228      0.67776      .   S
    C131   O229      0.72248  1_554   S
    C129   O229      0.72248      .   S
    C154   O230      0.54422      .   S
    C63    O230      0.54422      .   S
    C154   O231      0.70157      .   S
    C153   O231      0.70157  1_545   S
    C82    O232      0.54423      .   S
    C21    O232      0.54423      .   S
    C82    O233      0.70131      .   S
    C81    O233      0.70131      .   S
    C168   O234      0.51330      .   S
    C16    O234      0.51330      .   S
    C168   O235      0.98508  1_554   S
    C4     O235      0.98508      .   S
    C83    O236      0.70180      .   S
    C81    O236      0.70180      .   S
    C83    O237      0.54433      .   S
    C22    O237      0.54433      .   S
    C83    O238      0.69542  1_454   S
    C106   O238      0.69542      .   S
    C155   O239      0.70177      .   S
    C153   O239      0.70177      .   S
    C155   O240      0.54434      .   S
    C64    O240      0.54434      .   S
    C155   O241      0.69528      .   S
    C130   O241      0.69528  1_556   S
    C210   O242      0.51286      .   S
    C58    O242      0.51286  1_565   S
    C210   O243      0.98311  1_544   S
    C8     O243      0.98311      .   S
    C153   O244      0.74756      .   S
    C152   O244      0.74756      .   S
    C81    O245      0.74718      .   S
    C80    O245      0.74718      .   S
    C215   O246      0.65147      .   S
    C152   O246      0.65147      .   S
    C215   O247      0.95970      .   S
    C13    O247      0.95970      .   S
    C173   O248      0.65134      .   S
    C80    O248      0.65134      .   S
    C173   O249      0.95880      .   S
    C1     O249      0.95880      .   S
    C183   O250      0.63822      .   S
    C96    O250      0.63822      .   S
    C183   O251      0.99844  1_554   S
    C4     O251      0.99844      .   S
    C197   O252      0.63854      .   S
    C120   O252      0.63854  1_455   S
    C197   O253      0.99445  1_554   S
    C8     O253      0.99445      .   S
    C184   O254      0.64105      .   S
    C96    O254      0.64105      .   S
    C184   O255      0.97755  1_554   S
    C5     O255      0.97755      .   S
    C152   O256      0.62972      .   S
    C216   O256      0.62972  1_565   S
    C80    O257      0.63001      .   S
    C174   O257      0.63001      .   S
    C198   O258      0.64061      .   S
    C120   O258      0.64061      .   S
    C198   O259      0.97760  1_554   S
    C9     O259      0.97760      .   S
    C13    O260      0.99724      .   S
    C221   O260      0.99724      .   S
    C13    O261      0.97484  1_554   S
    C212   O261      0.97484      .   S
    C1     O262      0.99910      .   S
    C179   O262      0.99910      .   S
    C1     O263      0.97304  1_554   S
    C170   O263      0.97304      .   S
    C12    O264      0.96390      .   S
    C220   O264      0.96390      .   S
    C12    O265      0.99846      .   S
    C211   O265      0.99846  1_556   S
    C12    O266      0.98175      .   S
    C196   O266      0.98175  1_566   S
    C0     O267      0.96231      .   S
    C178   O267      0.96231      .   S
    C0     O268      0.99959      .   S
    C169   O268      0.99959  1_556   S
    C0     O269      0.98529      .   S
    C182   O269      0.98529  1_556   S
    C96    O270      0.74628      .   S
    C97    O270      0.74628      .   S
    C120   O271      0.74541      .   S
    C121   O271      0.74541      .   S
    C97    O272      0.70202      .   S
    C102   O272      0.70202      .   S
    C97    O273      0.70189      .   S
    C98    O273      0.70189      .   S
    C121   O274      0.70184      .   S
    C126   O274      0.70184      .   S
    C121   O275      0.70200  1_455   S
    C122   O275      0.70200      .   S
    C34    O276      0.54415      .   S
    C102   O276      0.54415      .   S
    C221   O277      0.63682      .   S
    C163   O277      0.63682      .   S
    C48    O278      0.54409      .   S
    C126   O278      0.54409      .   S
    C179   O279      0.63658      .   S
    C91    O279      0.63658      .   S
    C31    O280      0.54454      .   S
    C98    O280      0.54454      .   S
    C45    O281      0.54453      .   S
    C122   O281      0.54453      .   S
    C220   O282      0.64355  1_455   S
    C163   O282      0.64355      .   S
    C178   O283      0.64368      .   S
    C91    O283      0.64368      .   S
    C102   O284      0.69444      .   S
    C101   O284      0.69444      .   S
    C126   O285      0.69417      .   S
    C125   O285      0.69417      .   S
    C98    O286      0.69577      .   S
    C99    O286      0.69577      .   S
    C122   O287      0.69553      .   S
    C123   O287      0.69553      .   S
    C163   O288      0.74576      .   S
    C160   O288      0.74576      .   S
    C91    O289      0.74514      .   S
    C88    O289      0.74514      .   S
    C101   O290      0.54416      .   S
    C33    O290      0.54416      .   S
    C101   O291      0.70200      .   S
    C100   O291      0.70200      .   S
    C125   O292      0.54405      .   S
    C47    O292      0.54405      .   S
    C125   O293      0.70210      .   S
    C124   O293      0.70210  1_655   S
    C99    O294      0.54442      .   S
    C32    O294      0.54442      .   S
    C99    O295      0.70220      .   S
    C100   O295      0.70220      .   S
    C123   O296      0.54448      .   S
    C46    O296      0.54448      .   S
    C123   O297      0.70197      .   S
    C124   O297      0.70197      .   S
    C160   O298      0.70216      .   S
    C159   O298      0.70216      .   S
    C160   O299      0.70208  1_655   S
    C161   O299      0.70208      .   S
    C88    O300      0.70203      .   S
    C87    O300      0.70203      .   S
    C88    O301      0.70199      .   S
    C89    O301      0.70199      .   S
    C67    O302      0.54442      .   S
    C159   O302      0.54442      .   S
    C25    O303      0.54439      .   S
    C87    O303      0.54439      .   S
    C68    O304      0.54412      .   S
    C161   O304      0.54412      .   S
    C26    O305      0.54410      .   S
    C89    O305      0.54410      .   S
    C100   O306      0.74587      .   S
    C103   O306      0.74587      .   S
    C124   O307      0.74531      .   S
    C127   O307      0.74531      .   S
    C87    O308      0.69550      .   S
    C86    O308      0.69550      .   S
    C159   O309      0.69571      .   S
    C158   O309      0.69571      .   S
    C89    O310      0.69429      .   S
    C90    O310      0.69429      .   S
    C161   O311      0.69434      .   S
    C162   O311      0.69434      .   S
    C127   O312      0.64409      .   S
    C199   O312      0.64409  1_455   S
    C127   O313      0.63629      .   S
    C200   O313      0.63629      .   S
    C103   O314      0.64378      .   S
    C185   O314      0.64378      .   S
    C103   O315      0.63664      .   S
    C186   O315      0.63664      .   S
    C86    O316      0.54451      .   S
    C24    O316      0.54451      .   S
    C86    O317      0.70182      .   S
    C85    O317      0.70182      .   S
    C158   O318      0.54460      .   S
    C66    O318      0.54460      .   S
    C158   O319      0.70192      .   S
    C157   O319      0.70192  1_455   S
    C90    O320      0.54411      .   S
    C27    O320      0.54411      .   S
    C90    O321      0.70191      .   S
    C85    O321      0.70191      .   S
    C162   O322      0.54413      .   S
    C69    O322      0.54413      .   S
    C162   O323      0.70203      .   S
    C157   O323      0.70203      .   S
    C199   O324      0.96049      .   S
    C10    O324      0.96049      .   S
    C185   O325      0.96274      .   S
    C6     O325      0.96274      .   S
    C200   O326      1.00118      .   S
    C11    O326      1.00118      .   S
    C186   O327      0.99906      .   S
    C7     O327      0.99906      .   S
    C85    O328      0.74565      .   S
    C84    O328      0.74565      .   S
    C157   O329      0.74579      .   S
    C156   O329      0.74579      .   S
    C84    O330      0.64109      .   S
    C177   O330      0.64109      .   S
    C84    O331      0.63783      .   S
    C176   O331      0.63783      .   S
    C156   O332      0.64119      .   S
    C219   O332      0.64119      .   S
    C156   O333      0.63800  1_455   S
    C218   O333      0.63800      .   S
    C195   O334      0.49292  1_545   S
    C116   O334      0.49292      .   S
    C209   O335      0.62956      .   S
    C140   O335      0.62956      .   S
    C10    O336      0.98426      .   S
    C217   O336      0.98426      .   S
    C10    O337      0.99829      .   S
    C204   O337      0.99829      .   S
    C6     O338      0.98027      .   S
    C175   O338      0.98027  1_545   S
    C6     O339      1.00033      .   S
    C190   O339      1.00033      .   S
    C11    O340      0.95829      .   S
    C208   O340      0.95829      .   S
    C11    O341      0.97709      .   S
    C205   O341      0.97709      .   S
    C7     O342      0.95988      .   S
    C194   O342      0.95988      .   S
    C7     O343      0.97612      .   S
    C191   O343      0.97612      .   S
    C37    O344      0.51346  1_545   S
    C189   O344      0.51346      .   S
    C51    O345      0.51134      .   S
    C203   O345      0.51134      .   S
    C116   O346      0.65133      .   S
    C194   O346      0.65133      .   S
    C116   O347      0.74746      .   S
    C117   O347      0.74746      .   S
    C177   O348      0.97611      .   S
    C3     O348      0.97611      .   S
    C140   O349      0.65178      .   S
    C208   O349      0.65178      .   S
    C140   O350      0.74747      .   S
    C141   O350      0.74747      .   S
    C219   O351      0.97253      .   S
    C15    O351      0.97253      .   S
    C176   O352      0.99973      .   S
    C2     O352      0.99973      .   S
    C218   O353      1.00013      .   S
    C14    O353      1.00013      .   S
    C43    O354      0.54434      .   S
    C119   O354      0.54434      .   S
    C57    O355      0.54434      .   S
    C143   O355      0.54434      .   S
    C117   O356      0.70189      .   S
    C119   O356      0.70189      .   S
    C117   O357      0.70152  1_565   S
    C118   O357      0.70152      .   S
    C141   O358      0.70191      .   S
    C143   O358      0.70191      .   S
    C141   O359      0.70124      .   S
    C142   O359      0.70124      .   S
    C56    O360      0.54426      .   S
    C142   O360      0.54426      .   S
    C42    O361      0.54423      .   S
    C118   O361      0.54423      .   S
    C119   O362      0.69550  1_455   S
    C94    O362      0.69550      .   S
    C189   O363      0.97992  1_565   S
    C2     O363      0.97992      .   S
    C143   O364      0.69530      .   S
    C166   O364      0.69530      .   S
    C203   O365      0.98507      .   S
    C14    O365      0.98507      .   S
    C142   O366      0.69526      .   S
    C167   O366      0.69526      .   S
    C118   O367      0.69547      .   S
    C95    O367      0.69547  1_655   S
    C94    O368      0.54432      .   S
    C28    O368      0.54432      .   S
    C94    O369      0.70154      .   S
    C93    O369      0.70154  1_545   S
    C166   O370      0.54427      .   S
    C70    O370      0.54427      .   S
    C166   O371      0.70130      .   S
    C165   O371      0.70130      .   S
    C167   O372      0.70184      .   S
    C165   O372      0.70184      .   S
    C167   O373      0.54429      .   S
    C71    O373      0.54429      .   S
    C217   O374      0.51358      .   S
    C65    O374      0.51358      .   S
    C175   O375      0.51348      .   S
    C23    O375      0.51348  1_565   S
    C95    O376      0.70188      .   S
    C93    O376      0.70188      .   S
    C95    O377      0.54432      .   S
    C29    O377      0.54432      .   S
    C93    O378      0.74751      .   S
    C92    O378      0.74751      .   S
    C165   O379      0.74722      .   S
    C164   O379      0.74722      .   S
    C180   O380      0.65140      .   S
    C92    O380      0.65140      .   S
    C180   O381      0.95991      .   S
    C3     O381      0.95991      .   S
    C222   O382      0.65130      .   S
    C164   O382      0.65130      .   S
    C222   O383      0.95896      .   S
    C15    O383      0.95896      .   S
    C204   O384      0.63833      .   S
    C132   O384      0.63833  1_655   S
    C190   O385      0.63790      .   S
    C108   O385      0.63790      .   S
    C205   O386      0.64095      .   S
    C132   O386      0.64095      .   S
    C92    O387      0.62995      .   S
    C181   O387      0.62995  1_565   S
    C164   O388      0.63007      .   S
    C223   O388      0.63007      .   S
    C191   O389      0.64117      .   S
    C108   O389      0.64117      .   S
    C3     O390      0.99910      .   S
    C172   O390      0.99910      .   S
    C15    O391      1.44387      .   S
    C14    O391      1.44387  1_655   S
    C15    O392      0.99967      .   S
    C214   O392      0.99967      .   S
    C2     O393      0.96228      .   S
    C171   O393      0.96228      .   S
    C14    O394      0.96253      .   S
    C213   O394      0.96253      .   S
    C132   O395      0.74605      .   S
    C133   O395      0.74605      .   S
    C108   O396      0.74599      .   S
    C109   O396      0.74599      .   S
    C133   O397      0.70204      .   S
    C138   O397      0.70204      .   S
    C133   O398      0.70200  1_655   S
    C134   O398      0.70200      .   S
    C109   O399      0.70198      .   S
    C114   O399      0.70198      .   S
    C109   O400      0.70193      .   S
    C110   O400      0.70193      .   S
    C55    O401      0.54417      .   S
    C138   O401      0.54417      .   S
    C41    O402      0.54414      .   S
    C114   O402      0.54414      .   S
    C172   O403      0.63667      .   S
    C79    O403      0.63667      .   S
    C214   O404      0.63655      .   S
    C151   O404      0.63655      .   S
    C52    O405      0.54453      .   S
    C134   O405      0.54453      .   S
    C38    O406      0.54456      .   S
    C110   O406      0.54456      .   S
    C171   O407      0.64363      .   S
    C79    O407      0.64363      .   S
    C213   O408      0.64381  1_655   S
    C151   O408      0.64381      .   S
    C138   O409      0.69441      .   S
    C137   O409      0.69441      .   S
    C114   O410      0.69429      .   S
    C113   O410      0.69429      .   S
    C134   O411      0.69565      .   S
    C135   O411      0.69565      .   S
    C110   O412      0.69569      .   S
    C111   O412      0.69569      .   S
    C79    O413      0.74571      .   S
    C76    O413      0.74571      .   S
    C151   O414      0.74542      .   S
    C148   O414      0.74542      .   S
    C113   O415      0.54408      .   S
    C40    O415      0.54408      .   S
    C113   O416      0.70201      .   S
    C112   O416      0.70201      .   S
    C137   O417      0.54414      .   S
    C54    O417      0.54414      .   S
    C137   O418      0.70205      .   S
    C136   O418      0.70205  1_455   S
    C111   O419      0.54442      .   S
    C39    O419      0.54442      .   S
    C111   O420      0.70205      .   S
    C112   O420      0.70205      .   S
    C135   O421      0.54443      .   S
    C53    O421      0.54443      .   S
    C135   O422      0.70220      .   S
    C136   O422      0.70220      .   S
    C76    O423      0.70212      .   S
    C75    O423      0.70212      .   S
    C76    O424      0.70197      .   S
    C77    O424      0.70197      .   S
    C148   O425      0.70205      .   S
    C147   O425      0.70205      .   S
    C148   O426      0.70219  1_455   S
    C149   O426      0.70219      .   S
    C60    O427      0.54445      .   S
    C147   O427      0.54445      .   S
    C18    O428      0.54435      .   S
    C75    O428      0.54435      .   S
    C19    O429      0.54409      .   S
    C77    O429      0.54409      .   S
    C61    O430      0.54414      .   S
    C149   O430      0.54414      .   S
    C112   O431      0.74577      .   S
    C115   O431      0.74577      .   S
    C136   O432      0.74569      .   S
    C139   O432      0.74569      .   S
    C147   O433      0.69557      .   S
    C146   O433      0.69557      .   S
    C75    O434      0.69574      .   S
    C74    O434      0.69574      .   S
    C149   O435      0.69434      .   S
    C150   O435      0.69434      .   S
    C77    O436      0.69428      .   S
    C78    O436      0.69428      .   S
    C115   O437      0.64394      .   S
    C192   O437      0.64394      .   S
    C115   O438      0.63639      .   S
    C193   O438      0.63639      .   S
    C139   O439      0.64373      .   S
    C206   O439      0.64373  1_655   S
    C139   O440      0.63674      .   S
    C207   O440      0.63674      .   S
    C146   O441      0.54458      .   S
    C59    O441      0.54458      .   S
    C146   O442      0.70198      .   S
    C145   O442      0.70198  1_655   S
    C74    O443      0.54455      .   S
    C17    O443      0.54455      .   S
    C74    O444      0.70183      .   S
    C73    O444      0.70183      .   S
    C150   O445      0.54415      .   S
    C62    O445      0.54415      .   S
    C150   O446      0.70192      .   S
    C145   O446      0.70192      .   S
    C78    O447      0.54415      .   S
    C20    O447      0.54415      .   S
    C78    O448      0.70204      .   S
    C73    O448      0.70204      .   S
    C192   O449      0.96224      .   S
    C4     O449      0.96224      .   S
    C206   O450      0.96334      .   S
    C8     O450      0.96334      .   S
    C193   O451      1.00090      .   S
    C5     O451      1.00090      .   S
    C207   O452      0.99639      .   S
    C9     O452      0.99639      .   S
    C145   O453      0.74579      .   S
    C144   O453      0.74579      .   S
    C73    O454      0.74576      .   S
    C72    O454      0.74576      .   S
    C144   O455      0.64102      .   S
    C212   O455      0.64102      .   S
    C144   O456      0.63810  1_655   S
    C211   O456      0.63810      .   S
    C72    O457      0.64116      .   S
    C170   O457      0.64116      .   S
    C72    O458      0.63784      .   S
    C169   O458      0.63784      .   S
    C202   O459      0.50190  1_545   S
    C128   O459      0.50190      .   S
    C188   O460      0.62960      .   S
    C104   O460      0.62960      .   S
    C5     O461      0.95828      .   S
    C187   O461      0.95828      .   S
    C44    O462      0.51287  1_545   S
    C196   O462      0.51287      .   S
    C9     O463      0.95937      .   S
    C201   O463      0.95937      .   S
    C30    O464      0.51143      .   S
    C182   O464      0.51143      .   S
    C128   O465      0.65170      .   S
    C201   O465      0.65170      .   S
    C128   O466      0.74747      .   S
    C129   O466      0.74747      .   S
    C104   O467      0.65187      .   S
    C187   O467      0.65187      .   S
    C104   O468      0.74741      .   S
    C105   O468      0.74741      .   S
    C129   O469      0.70153  1_565   S
    C130   O469      0.70153      .   S
    C105   O470      0.70121      .   S
    C106   O470      0.70121      .   S
    C35    O471      0.54435      .   S
    C106   O471      0.54435      .   S
    C49    O472      0.54434      .   S
    C130   O472      0.54434      .   S
    C168   O473      1.03780      .   S
    C0     O473      1.03780      .   S
    C168   O474      1.05725      .   S
    C1     O474      1.05725      .   S
    C175   O475      1.04538      .   S
    C2     O475      1.04538      .   S
    C175   O476      1.05476      .   S
    C3     O476      1.05476      .   S
    C182   O477      1.04380      .   S
    C4     O477      1.04380      .   S
    C182   O478      1.05100      .   S
    C5     O478      1.05100      .   S
    C189   O479      1.04624      .   S
    C6     O479      1.04624      .   S
    C189   O480      1.05383      .   S
    C7     O480      1.05383      .   S
    C196   O481      1.04759      .   S
    C8     O481      1.04759  1_655   S
    C196   O482      1.05101      .   S
    C9     O482      1.05101      .   S
    C203   O483      1.04466      .   S
    C10    O483      1.04466  1_455   S
    C203   O484      1.05084      .   S
    C11    O484      1.05084      .   S
    C210   O485      1.04304      .   S
    C12    O485      1.04304  1_455   S
    C210   O486      1.05712      .   S
    C13    O486      1.05712      .   S
    C217   O487      1.03832      .   S
    C14    O487      1.03832  1_655   S
    C217   O488      1.05630      .   S
    C15    O488      1.05630      .   S
