# CIF file generated by openbabel 2.4.90, see http://openbabel.sf.net
data_I
_chemical_name_common ''
_cell_length_a 14.565
_cell_length_b 15.855
_cell_length_c 18.856
_cell_angle_alpha 90.398
_cell_angle_beta 90.114
_cell_angle_gamma 90.004
_space_group_name_H-M_alt 'P 1'
_space_group_name_Hall 'P 1'
loop_
    _symmetry_equiv_pos_as_xyz
    x,y,z
loop_
    _atom_site_label
    _atom_site_type_symbol
    _atom_site_fract_x
    _atom_site_fract_y
    _atom_site_fract_z
    _atom_site_occupancy
    Zr0     Zr   0.52788   0.42992   0.04018   1.000
    Zr1     Zr   0.34347   0.36341   0.03424   1.000
    Zr2     Zr   0.46927   0.07102   0.53826   1.000
    Zr3     Zr   0.65612   0.13676   0.53394   1.000
    Zr4     Zr   0.46858   0.56997   0.95675   1.000
    Zr5     Zr   0.65569   0.63422   0.96285   1.000
    Zr6     Zr   0.53076   0.92867   0.45859   1.000
    Zr7     Zr   0.34391   0.86311   0.46301   1.000
    Zr8     Zr   0.96901   0.92649   0.95922   1.000
    Zr9     Zr   0.15606   0.86245   0.96346   1.000
    Zr10    Zr   0.03139   0.56991   0.45696   1.000
    Zr11    Zr   0.84423   0.63420   0.46279   1.000
    Zr12    Zr   0.03086   0.07060   0.03807   1.000
    Zr13    Zr   0.84390   0.13595   0.03381   1.000
    Zr14    Zr   0.97214   0.42986   0.54021   1.000
    Zr15    Zr   0.15663   0.36351   0.53442   1.000
    Zr16    Zr   0.34785   0.50827   0.03321   1.000
    Zr17    Zr   0.65130   0.99220   0.53382   1.000
    Zr18    Zr   0.64868   0.49026   0.96356   1.000
    Zr19    Zr   0.34861   0.00760   0.46308   1.000
    Zr20    Zr   0.15087   0.00632   0.96322   1.000
    Zr21    Zr   0.85107   0.49028   0.46356   1.000
    Zr22    Zr   0.84942   0.99160   0.03399   1.000
    Zr23    Zr   0.15232   0.50837   0.53346   1.000
    Zr24    Zr   0.40319   0.48083   0.00855   1.000
    Zr25    Zr   0.59581   0.01921   0.50913   1.000
    Zr26    Zr   0.59402   0.51842   0.98812   1.000
    Zr27    Zr   0.40414   0.98059   0.48772   1.000
    Zr28    Zr   0.09563   0.97941   0.98802   1.000
    Zr29    Zr   0.90588   0.51838   0.48812   1.000
    Zr30    Zr   0.90470   0.01831   0.00910   1.000
    Zr31    Zr   0.09683   0.48084   0.50883   1.000
    O32     O    0.37552   0.49455   0.02088   1.000
    O33     O    0.43589   0.52540   0.98265   1.000
    O34     O    0.87706   0.00495   0.02155   1.000
    O35     O    0.93685   0.97240   0.98416   1.000
    O36     O    0.06324   0.02501   0.01305   1.000
    O37     O    0.56095   0.47417   0.01415   1.000
    O38     O    0.06411   0.52538   0.48290   1.000
    O39     O    0.56329   0.97394   0.48386   1.000
    O40     O    0.37638   0.99409   0.47540   1.000
    O41     O    0.87848   0.50433   0.47584   1.000
    O42     O    0.43671   0.02581   0.51299   1.000
    O43     O    0.93901   0.47412   0.51416   1.000
    O44     O    0.12457   0.49460   0.52114   1.000
    O45     O    0.62355   0.00571   0.52147   1.000
    O46     O    0.06438   0.39669   0.53731   1.000
    O47     O    0.12325   0.99287   0.97562   1.000
    O48     O    0.62135   0.50434   0.97584   1.000
    O49     O    0.46553   0.45538   0.02436   1.000
    O50     O    0.37333   0.42212   0.02139   1.000
    O51     O    0.53254   0.04512   0.52369   1.000
    O52     O    0.62597   0.07799   0.52153   1.000
    O53     O    0.53130   0.54419   0.97243   1.000
    O54     O    0.62486   0.57632   0.97548   1.000
    O55     O    0.46745   0.95463   0.47315   1.000
    O56     O    0.37403   0.92185   0.47536   1.000
    O57     O    0.03232   0.95295   0.97362   1.000
    O58     O    0.12584   0.92093   0.97574   1.000
    O59     O    0.96864   0.54415   0.47254   1.000
    O60     O    0.87506   0.57629   0.47546   1.000
    O61     O    0.96778   0.04445   0.02359   1.000
    O62     O    0.87430   0.07713   0.02146   1.000
    O63     O    0.03448   0.45535   0.52452   1.000
    O64     O    0.12673   0.42217   0.52162   1.000
    N65     N    0.00900   0.28215   0.80262   1.000
    O66     O    0.02249   0.19929   0.90243   1.000
    O67     O    0.93914   0.22798   0.90049   1.000
    O68     O    0.99041   0.34755   0.69588   1.000
    O69     O    0.07208   0.31620   0.69302   1.000
    N70     N    0.50014   0.99717   0.00035   1.000
    O71     O    0.36038   0.93561   0.98329   1.000
    O72     O    0.63979   0.06050   0.01559   1.000
    N73     N    0.99169   0.21688   0.30321   1.000
    O74     O    0.97892   0.30008   0.40384   1.000
    O75     O    0.06135   0.27049   0.40157   1.000
    O76     O    0.01136   0.15295   0.19505   1.000
    O77     O    0.92863   0.18323   0.19299   1.000
    N78     N    0.49144   0.28313   0.30284   1.000
    O79     O    0.47811   0.20000   0.40256   1.000
    O80     O    0.56121   0.22933   0.40088   1.000
    O81     O    0.50987   0.34808   0.19597   1.000
    O82     O    0.42821   0.31668   0.19306   1.000
    N83     N    0.50800   0.71590   0.69404   1.000
    O84     O    0.52162   0.79940   0.59436   1.000
    O85     O    0.43852   0.77012   0.59604   1.000
    O86     O    0.48837   0.65140   0.80094   1.000
    O87     O    0.57113   0.68139   0.80382   1.000
    N88     N    0.49053   0.78275   0.19337   1.000
    O89     O    0.47676   0.69965   0.09288   1.000
    O90     O    0.55998   0.72847   0.09514   1.000
    O91     O    0.51070   0.84661   0.30157   1.000
    O92     O    0.42798   0.81634   0.30363   1.000
    N93     N    0.99950   0.49928   0.00044   1.000
    O94     O    0.13929   0.43737   0.01578   1.000
    O95     O    0.85983   0.56101   0.98320   1.000
    N96     N    0.99162   0.71515   0.19424   1.000
    O97     O    0.01140   0.65099   0.30119   1.000
    O98     O    0.92862   0.68097   0.30390   1.000
    O99     O    0.97788   0.79803   0.09461   1.000
    O100    O    0.06120   0.76952   0.09643   1.000
    N101    N    0.00932   0.78217   0.69367   1.000
    O102    O    0.02318   0.69936   0.59311   1.000
    O103    O    0.93996   0.72820   0.59523   1.000
    O104    O    0.98916   0.84572   0.80190   1.000
    O105    O    0.07155   0.81505   0.80428   1.000
    N106    N    0.50846   0.21684   0.80337   1.000
    O107    O    0.52116   0.30008   0.90394   1.000
    O108    O    0.43875   0.27044   0.90156   1.000
    O109    O    0.48879   0.15306   0.69520   1.000
    O110    O    0.57151   0.18341   0.69320   1.000
    N111    N    0.99995   0.99819   0.49837   1.000
    O112    O    0.86024   0.06133   0.51466   1.000
    O113    O    0.13971   0.93675   0.48216   1.000
    N114    N    0.50031   0.49974   0.49845   1.000
    O115    O    0.64003   0.56130   0.48219   1.000
    O116    O    0.36063   0.43775   0.51484   1.000
loop_
    _geom_bond_atom_site_label_1
    _geom_bond_atom_site_label_2
    _geom_bond_distance
    _geom_bond_site_symmetry_2
    _ccdc_geom_bond_type
    Zr24   O32       0.51330      .   S
    Zr16   O32       0.51330      .   S
    Zr24   O33       0.98502  1_554   S
    Zr4    O33       0.98502      .   S
    Zr30   O34       0.51281      .   S
    Zr22   O34       0.51281  1_565   S
    Zr30   O35       0.98309  1_544   S
    Zr8    O35       0.98309      .   S
    Zr12   O36       0.98173      .   S
    Zr28   O36       0.98173  1_566   S
    Zr0    O37       0.98527      .   S
    Zr26   O37       0.98527  1_556   S
    Zr10   O38       0.98421      .   S
    Zr31   O38       0.98421      .   S
    Zr6    O39       0.98030      .   S
    Zr25   O39       0.98030  1_545   S
    Zr19   O40       0.51350  1_545   S
    Zr27   O40       0.51350      .   S
    Zr21   O41       0.51132      .   S
    Zr29   O41       0.51132      .   S
    Zr27   O42       0.97989  1_565   S
    Zr2    O42       0.97989      .   S
    Zr29   O43       0.98507      .   S
    Zr14   O43       0.98507      .   S
    Zr31   O44       0.51357      .   S
    Zr23   O44       0.51357      .   S
    Zr25   O45       0.51348      .   S
    Zr17   O45       0.51348  1_565   S
    Zr15   O46       1.44385      .   S
    Zr14   O46       1.44385  1_655   S
    Zr20   O47       0.51288  1_545   S
    Zr28   O47       0.51288      .   S
    Zr18   O48       0.51143      .   S
    Zr26   O48       0.51143      .   S
    Zr24   O49       1.03784      .   S
    Zr0    O49       1.03784      .   S
    Zr24   O50       1.05730      .   S
    Zr1    O50       1.05730      .   S
    Zr25   O51       1.04538      .   S
    Zr2    O51       1.04538      .   S
    Zr25   O52       1.05479      .   S
    Zr3    O52       1.05479      .   S
    Zr26   O53       1.04383      .   S
    Zr4    O53       1.04383      .   S
    Zr26   O54       1.05099      .   S
    Zr5    O54       1.05099      .   S
    Zr27   O55       1.04624      .   S
    Zr6    O55       1.04624      .   S
    Zr27   O56       1.05383      .   S
    Zr7    O56       1.05383      .   S
    Zr28   O57       1.04755      .   S
    Zr8    O57       1.04755  1_655   S
    Zr28   O58       1.05100      .   S
    Zr9    O58       1.05100      .   S
    Zr29   O59       1.04466      .   S
    Zr10   O59       1.04466  1_455   S
    Zr29   O60       1.05080      .   S
    Zr11   O60       1.05080      .   S
    Zr30   O61       1.04304      .   S
    Zr12   O61       1.04304  1_455   S
    Zr30   O62       1.05713      .   S
    Zr13   O62       1.05713      .   S
    Zr31   O63       1.03828      .   S
    Zr14   O63       1.03828  1_655   S
    Zr31   O64       1.05631      .   S
    Zr15   O64       1.05631      .   S
    N65    O66       2.31078      .   S
    Zr12   O66       3.28493  1_554   S
    N65    O67       2.28212  1_455   S
    Zr13   O67       3.23073  1_554   S
    N65    O68       2.28610  1_455   S
    Zr14   O68       3.23110      .   S
    N65    O69       2.33010      .   S
    Zr15   O69       3.32685      .   S
    N70    O71       2.27873  1_554   S
    Zr9    O71       3.21410      .   S
    N70    O72       2.28508  1_565   S
    Zr13   O72       3.22131      .   S
    N73    O74       2.31118      .   S
    Zr14   O74       3.28385      .   S
    N73    O75       2.27209  1_655   S
    Zr15   O75       3.21098      .   S
    N73    O76       2.28962  1_655   S
    Zr12   O76       3.23995      .   S
    N73    O77       2.32905      .   S
    Zr13   O77       3.32374      .   S
    N78    O79       2.31226      .   S
    Zr2    O79       3.28923      .   S
    N78    O80       2.27860      .   S
    Zr3    O80       3.22453      .   S
    N78    O81       2.28566      .   S
    Zr0    O81       3.23085      .   S
    N78    O82       2.32896      .   S
    Zr1    O82       3.32512      .   S
    N83    O84       2.31532      .   S
    Zr6    O84       3.29348      .   S
    N83    O85       2.27876      .   S
    Zr7    O85       3.22531      .   S
    N83    O86       2.28509      .   S
    Zr4    O86       3.23067      .   S
    N83    O87       2.33189      .   S
    Zr5    O87       3.32943      .   S
    N88    O89       2.30877      .   S
    Zr4    O89       3.27959  1_556   S
    N88    O90       2.27596      .   S
    Zr5    O90       3.21877  1_556   S
    N88    O91       2.28978      .   S
    Zr6    O91       3.23837      .   S
    N88    O92       2.32996      .   S
    Zr7    O92       3.32632      .   S
    N93    O94       2.27914  1_655   S
    Zr1    O94       3.21584      .   S
    N93    O95       2.28123  1_554   S
    Zr5    O95       3.21526      .   S
    N96    O97       2.28283  1_655   S
    Zr10   O97       3.22703      .   S
    N96    O98       2.33125      .   S
    Zr11   O98       3.32903      .   S
    N96    O99       2.30839      .   S
    Zr8    O99       3.27924  1_556   S
    N96    O100      2.28048  1_655   S
    Zr9    O100      3.22983  1_556   S
    N101   O102      2.30806      .   S
    Zr10   O102      3.27793      .   S
    N101   O103      2.27342  1_455   S
    Zr11   O103      3.21492      .   S
    N101   O104      2.28912  1_455   S
    Zr8    O104      3.23685      .   S
    N101   O105      2.32821      .   S
    Zr9    O105      3.32297      .   S
    N106   O107      2.31001      .   S
    Zr0    O107      3.28213  1_554   S
    N106   O108      2.27308      .   S
    Zr1    O108      3.21267  1_554   S
    N106   O109      2.28768      .   S
    Zr2    O109      3.23626      .   S
    N106   O110      2.33057      .   S
    Zr3    O110      3.32694      .   S
    N111   O112      2.28811  1_565   S
    Zr3    O112      3.22486      .   S
    N111   O113      2.27704  1_655   S
    Zr7    O113      3.21535      .   S
    N114   O115      2.27904      .   S
    Zr11   O115      3.21334      .   S
    N114   O116      2.28183      .   S
    Zr15   O116      3.21881      .   S
