# CIF file generated by openbabel 2.4.90, see http://openbabel.sf.net
data_I
_chemical_name_common ''
_cell_length_a 14.565
_cell_length_b 15.855
_cell_length_c 18.856
_cell_angle_alpha 90.398
_cell_angle_beta 90.114
_cell_angle_gamma 90.004
_space_group_name_H-M_alt 'P 1'
_space_group_name_Hall 'P 1'
loop_
    _symmetry_equiv_pos_as_xyz
    x,y,z
loop_
    _atom_site_label
    _atom_site_type_symbol
    _atom_site_fract_x
    _atom_site_fract_y
    _atom_site_fract_z
    _atom_site_occupancy
    N0      N    0.00900   0.28215   0.80262   1.000
    N1      N    0.50014   0.99717   0.00035   1.000
    N2      N    0.99169   0.21688   0.30321   1.000
    N3      N    0.49144   0.28313   0.30284   1.000
    N4      N    0.50800   0.71590   0.69404   1.000
    N5      N    0.49053   0.78275   0.19337   1.000
    N6      N    0.99950   0.49928   0.00044   1.000
    N7      N    0.99162   0.71515   0.19424   1.000
    N8      N    0.00932   0.78217   0.69367   1.000
    N9      N    0.50846   0.21684   0.80337   1.000
    N10     N    0.99995   0.99819   0.49837   1.000
    N11     N    0.50031   0.49974   0.49845   1.000
    Zr12    Zr   0.00131   0.49942   0.49854   1.000
    O13     O    0.00636   0.57521   0.39987   1.000
    O14     O    0.01225   0.59939   0.54583   1.000
    O15     O    0.99012   0.39975   0.45119   1.000
    O16     O    0.99586   0.42348   0.59721   1.000
    O17     O    0.82067   0.53036   0.49037   1.000
    O18     O    0.96497   0.59020   0.40122   1.000
    O19     O    0.97063   0.61381   0.54689   1.000
    O20     O    0.18097   0.46859   0.50669   1.000
    O21     O    0.03133   0.38496   0.45006   1.000
    O22     O    0.03670   0.40781   0.59578   1.000
    Zr23    Zr   0.00006   0.99889   0.99861   1.000
    O24     O    0.81993   0.02970   0.00710   1.000
    O25     O    0.96434   0.09106   0.09580   1.000
    O26     O    0.96960   0.11344   0.94955   1.000
    O27     O    0.98897   0.89846   0.04661   1.000
    O28     O    0.99461   0.92231   0.90026   1.000
    O29     O    0.18022   0.96725   0.99095   1.000
    O30     O    0.03063   0.88420   0.04752   1.000
    O31     O    0.03580   0.90697   0.90145   1.000
    O32     O    0.00571   0.07592   0.09683   1.000
    O33     O    0.01127   0.09909   0.95052   1.000
    Zr34    Zr   0.49867   0.49941   0.99843   1.000
    O35     O    0.50427   0.42375   0.09720   1.000
    O36     O    0.50992   0.39974   0.95119   1.000
    O37     O    0.46871   0.38493   0.95000   1.000
    O38     O    0.46344   0.40805   0.09575   1.000
    O39     O    0.31898   0.46839   0.00711   1.000
    O40     O    0.48772   0.59953   0.04565   1.000
    O41     O    0.49352   0.57541   0.89969   1.000
    O42     O    0.67925   0.53021   0.99082   1.000
    O43     O    0.53490   0.59040   0.90112   1.000
    O44     O    0.52933   0.61394   0.04678   1.000
    Zr45    Zr   0.49999   0.99990   0.49844   1.000
    O46     O    0.51080   0.89965   0.54640   1.000
    O47     O    0.50535   0.92325   0.40001   1.000
    O48     O    0.49439   0.07648   0.59682   1.000
    O49     O    0.48905   0.09995   0.45050   1.000
    O50     O    0.53575   0.09165   0.59582   1.000
    O51     O    0.68012   0.03061   0.50655   1.000
    O52     O    0.53060   0.11461   0.44966   1.000
    O53     O    0.31985   0.96832   0.49030   1.000
    O54     O    0.46926   0.88501   0.54724   1.000
    O55     O    0.46399   0.90812   0.40104   1.000
loop_
    _geom_bond_atom_site_label_1
    _geom_bond_atom_site_label_2
    _geom_bond_distance
    _geom_bond_site_symmetry_2
    _ccdc_geom_bond_type
    Zr12   O13       2.22323      .   S
    N7     O13       4.48548  1_655   S
    Zr12   O14       1.81995      .   S
    N8     O14       4.00747      .   S
    Zr12   O15       1.81685  1_455   S
    N2     O15       4.01007      .   S
    Zr12   O16       2.22457  1_455   S
    N0     O16       4.49186  1_455   S
    Zr12   O17       2.68075  1_455   S
    N11    O17       4.69406      .   S
    Zr12   O18       2.39836  1_455   S
    N7     O18       4.40703      .   S
    Zr12   O19       2.07337  1_455   S
    N8     O19       3.87218  1_455   S
    Zr12   O20       2.66640      .   S
    N11    O20       4.68028      .   S
    Zr12   O21       2.07350      .   S
    N2     O21       3.87203  1_655   S
    Zr12   O22       2.40217      .   S
    N0     O22       4.41097      .   S
    Zr23   O24       2.67361  1_466   S
    N1     O24       4.68747  1_565   S
    Zr23   O25       2.39398  1_466   S
    N2     O25       4.39528      .   S
    Zr23   O26       2.09111  1_465   S
    N0     O26       3.90770  1_455   S
    Zr23   O27       1.84427  1_456   S
    N7     O27       4.03850      .   S
    Zr23   O28       2.21098  1_455   S
    N8     O28       4.47658  1_455   S
    Zr23   O29       2.67561      .   S
    N1     O29       4.68661  1_554   S
    Zr23   O30       2.09215  1_556   S
    N7     O30       3.90764  1_655   S
    Zr23   O31       2.39136      .   S
    N8     O31       4.39317      .   S
    Zr23   O32       2.21275  1_566   S
    N2     O32       4.47910  1_655   S
    Zr23   O33       1.84212  1_565   S
    N0     O33       4.03921      .   S
    Zr34   O35       2.22369  1_556   S
    N3     O35       4.49040      .   S
    Zr34   O36       1.81622      .   S
    N9     O36       4.00832      .   S
    Zr34   O37       2.07239      .   S
    N9     O37       3.87116      .   S
    Zr34   O38       2.40195  1_556   S
    N3     O38       4.40897      .   S
    Zr34   O39       2.66850  1_556   S
    N6     O39       4.68045  1_655   S
    Zr34   O40       1.82180  1_556   S
    N5     O40       4.01064      .   S
    Zr34   O41       2.22593      .   S
    N4     O41       4.49063      .   S
    Zr34   O42       2.67939      .   S
    N6     O42       4.69351  1_554   S
    Zr34   O43       2.40138      .   S
    N4     O43       4.41157      .   S
    Zr34   O44       2.07443  1_556   S
    N5     O44       3.87630      .   S
    Zr45   O46       1.84075      .   S
    N4     O46       4.04379      .   S
    Zr45   O47       2.21297      .   S
    N5     O47       4.47963      .   S
    Zr45   O48       2.21165  1_565   S
    N9     O48       4.47648      .   S
    Zr45   O49       1.83802  1_565   S
    N3     O49       4.03756      .   S
    Zr45   O50       2.39127  1_565   S
    N9     O50       4.39444      .   S
    Zr45   O51       2.67220  1_565   S
    N10    O51       4.68935  1_565   S
    Zr45   O52       2.09234  1_565   S
    N3     O52       3.90193      .   S
    Zr45   O53       2.67494      .   S
    N10    O53       4.68612  1_655   S
    Zr45   O54       2.09522      .   S
    N4     O54       3.90726      .   S
    Zr45   O55       2.39265      .   S
    N5     O55       4.39686      .   S
