# CIF file generated by openbabel 2.4.90, see http://openbabel.sf.net
data_I
_chemical_name_common ''
_cell_length_a 16.341
_cell_length_b 18.078
_cell_length_c 18.066
_cell_angle_alpha 68.745
_cell_angle_beta 72.547
_cell_angle_gamma 107.43
_space_group_name_H-M_alt 'P 1'
_space_group_name_Hall 'P 1'
loop_
    _symmetry_equiv_pos_as_xyz
    x,y,z
loop_
    _atom_site_label
    _atom_site_type_symbol
    _atom_site_fract_x
    _atom_site_fract_y
    _atom_site_fract_z
    _atom_site_occupancy
    Fe0     Fe   0.50000   0.50005   0.49998   1.000
    Fe1     Fe   1.00000   0.50003   0.00000   1.000
    Fe2     Fe   1.00000   0.50004   0.49999   1.000
    Fe3     Fe   0.50000   0.00003   0.49999   1.000
    Fe4     Fe   0.50001   0.50004   0.99999   1.000
    Fe5     Fe   0.00001   0.00003   0.49999   1.000
