# CIF file generated by openbabel 2.4.90, see http://openbabel.sf.net
data_I
_chemical_name_common ''
_cell_length_a 16.341
_cell_length_b 18.078
_cell_length_c 18.066
_cell_angle_alpha 68.745
_cell_angle_beta 72.547
_cell_angle_gamma 107.43
_space_group_name_H-M_alt 'P 1'
_space_group_name_Hall 'P 1'
loop_
    _symmetry_equiv_pos_as_xyz
    x,y,z
loop_
    _atom_site_label
    _atom_site_type_symbol
    _atom_site_fract_x
    _atom_site_fract_y
    _atom_site_fract_z
    _atom_site_occupancy
    Zr0     Zr   0.00001   0.00003   0.49999   1.000
    Zr1     Zr   0.50000   0.50005   0.49998   1.000
    Zr2     Zr   1.00000   0.50003   0.00000   1.000
    Zr3     Zr   1.00000   0.50004   0.49999   1.000
    Zr4     Zr   0.50000   0.00003   0.49999   1.000
    Zr5     Zr   0.50001   0.50004   0.99999   1.000
    N6      N    0.40642   0.85139   0.74034   1.000
    O7      O    0.44656   0.69707   0.84886   1.000
    N8      N    0.14705   0.74037   0.40835   1.000
    O9      O    0.29558   0.84890   0.45414   1.000
    N10     N    0.05617   0.14942   0.59134   1.000
    O11     O    0.25013   0.30344   0.54564   1.000
    N12     N    0.94385   0.85066   0.40843   1.000
    O13     O    0.74987   0.69665   0.45423   1.000
    N14     N    0.09353   0.74017   0.85136   1.000
    O15     O    0.05345   0.84878   0.69698   1.000
    N16     N    0.35331   0.40848   0.74036   1.000
    O17     O    0.20461   0.45421   0.84892   1.000
    N18     N    0.85281   0.25970   0.59164   1.000
    O19     O    0.70435   0.15117   0.54585   1.000
    N20     N    0.59358   0.14868   0.25965   1.000
    O21     O    0.55344   0.30301   0.15112   1.000
    N22     N    0.44416   0.59138   0.14940   1.000
    O23     O    0.25007   0.54564   0.30348   1.000
    N24     N    0.90646   0.25989   0.14846   1.000
    O25     O    0.94655   0.15128   0.30292   1.000
    N26     N    0.55585   0.40869   0.85055   1.000
    O27     O    0.74994   0.45443   0.69647   1.000
    N28     N    0.64667   0.59160   0.25962   1.000
    O29     O    0.79538   0.54586   0.15108   1.000
    O30     O    0.06146   0.64443   0.91704   1.000
    O31     O    0.93853   0.35563   0.08287   1.000
    O32     O    0.56149   0.08300   0.35547   1.000
    O33     O    0.43850   0.91707   0.64452   1.000
    O34     O    0.91679   0.35553   0.56145   1.000
    O35     O    0.08314   0.64455   0.43854   1.000
    O36     O    0.02221   0.08353   0.56131   1.000
    O37     O    0.97780   0.91654   0.43857   1.000
    O38     O    0.41712   0.43865   0.64451   1.000
    O39     O    0.58287   0.56144   0.35546   1.000
    O40     O    0.47802   0.56133   0.08349   1.000
    O41     O    0.52199   0.43875   0.91646   1.000
loop_
    _geom_bond_atom_site_label_1
    _geom_bond_atom_site_label_2
    _geom_bond_distance
    _geom_bond_site_symmetry_2
    _ccdc_geom_bond_type
    N6     O7        3.15589      .   S
    Zr5    O7        4.14083      .   S
    N8     O9        3.15481      .   S
    Zr4    O9        4.14028  1_545   S
    N10    O11       3.15556      .   S
    Zr1    O11       4.14062      .   S
    N12    O13       3.15486      .   S
    Zr1    O13       4.13991      .   S
    N14    O15       3.15564      .   S
    Zr0    O15       4.14054  1_545   S
    N16    O17       3.15512      .   S
    Zr2    O17       4.14002  1_654   S
    N18    O19       3.15418      .   S
    Zr4    O19       4.13972      .   S
    N20    O21       3.15594      .   S
    Zr5    O21       4.14086  1_556   S
    N22    O23       3.15533      .   S
    Zr3    O23       4.13999  1_655   S
    N24    O25       3.15680      .   S
    Zr0    O25       4.14165  1_455   S
    N26    O27       3.15521      .   S
    Zr3    O27       4.13959      .   S
    N28    O29       3.15519      .   S
    Zr2    O29       4.14016      .   S
    Zr2    O30       2.18146  1_654   S
    N14    O30       1.50769      .   S
    Zr2    O31       2.18134      .   S
    N24    O31       1.50727      .   S
    Zr4    O32       2.18184      .   S
    N20    O32       1.50786      .   S
    Zr4    O33       2.18191  1_545   S
    N6     O33       1.50786      .   S
    Zr3    O34       2.18403      .   S
    N18    O34       1.50982      .   S
    Zr3    O35       2.18383  1_655   S
    N8     O35       1.50948      .   S
    Zr0    O36       2.18241      .   S
    N10    O36       1.50806      .   S
    Zr0    O37       2.18370  1_445   S
    N12    O37       1.50939      .   S
    Zr1    O38       2.18198      .   S
    N16    O38       1.50817      .   S
    Zr1    O39       2.18182      .   S
    N28    O39       1.50799      .   S
    Zr5    O40       2.18112  1_556   S
    N22    O40       1.50755      .   S
    Zr5    O41       2.18170      .   S
    N26    O41       1.50782      .   S
