# CIF file generated by openbabel 2.4.90, see http://openbabel.sf.net
data_I
_chemical_name_common ''
_cell_length_a 13.959
_cell_length_b 14.282
_cell_length_c 14.294
_cell_angle_alpha 97.176
_cell_angle_beta 106.298
_cell_angle_gamma 106.781
_space_group_name_H-M_alt 'P 1'
_space_group_name_Hall 'P 1'
loop_
    _symmetry_equiv_pos_as_xyz
    x,y,z
loop_
    _atom_site_label
    _atom_site_type_symbol
    _atom_site_fract_x
    _atom_site_fract_y
    _atom_site_fract_z
    _atom_site_occupancy
    Zr0     Zr   0.63956   0.33761   0.62570   1.000
    Zr1     Zr   0.86114   0.37487   0.66216   1.000
    Zr2     Zr   0.36045   0.66238   0.37428   1.000
    Zr3     Zr   0.13887   0.62513   0.33783   1.000
    Zr4     Zr   0.70368   0.16252   0.62620   1.000
    Zr5     Zr   0.70739   0.33977   0.44892   1.000
    Zr6     Zr   0.79595   0.37282   0.83693   1.000
    Zr7     Zr   0.79428   0.55202   0.66216   1.000
    Zr8     Zr   0.29633   0.83748   0.37378   1.000
    Zr9     Zr   0.29262   0.66024   0.55107   1.000
    Zr10    Zr   0.20406   0.62718   0.16305   1.000
    Zr11    Zr   0.20573   0.44797   0.33781   1.000
    Zr12    Zr   0.62081   0.18778   0.60504   1.000
    Zr13    Zr   0.62588   0.33235   0.47537   1.000
    Zr14    Zr   0.79938   0.22102   0.64936   1.000
    Zr15    Zr   0.80071   0.35255   0.50664   1.000
    Zr16    Zr   0.87902   0.39452   0.81141   1.000
    Zr17    Zr   0.87586   0.52615   0.66953   1.000
    Zr18    Zr   0.70041   0.34949   0.77902   1.000
    Zr19    Zr   0.70089   0.49369   0.64998   1.000
    Zr20    Zr   0.37920   0.81222   0.39494   1.000
    Zr21    Zr   0.37413   0.66764   0.52461   1.000
    Zr22    Zr   0.20063   0.77898   0.35063   1.000
    Zr23    Zr   0.19930   0.64745   0.49334   1.000
    Zr24    Zr   0.12098   0.60548   0.18857   1.000
    Zr25    Zr   0.12415   0.47385   0.33046   1.000
    Zr26    Zr   0.29960   0.65051   0.22096   1.000
    Zr27    Zr   0.29912   0.50631   0.35001   1.000
    O28     O    0.16252   0.61633   0.17581   1.000
    O29     O    0.25183   0.63884   0.19201   1.000
    O30     O    0.12993   0.61530   0.26320   1.000
    O31     O    0.33003   0.65645   0.29762   1.000
    O32     O    0.16494   0.46091   0.33414   1.000
    O33     O    0.13151   0.54949   0.33414   1.000
    O34     O    0.25242   0.47714   0.34391   1.000
    O35     O    0.16975   0.70205   0.34423   1.000
    O36     O    0.16909   0.63629   0.41559   1.000
    O37     O    0.32979   0.58435   0.36214   1.000
    O38     O    0.24848   0.80823   0.36221   1.000
    O39     O    0.33777   0.82485   0.38436   1.000
    O40     O    0.36983   0.73730   0.38461   1.000
    O41     O    0.36729   0.66501   0.44944   1.000
    O42     O    0.66663   0.33606   0.46215   1.000
    O43     O    0.75405   0.34616   0.47778   1.000
    O44     O    0.63272   0.33498   0.55054   1.000
    O45     O    0.24596   0.65385   0.52221   1.000
    O46     O    0.83092   0.36371   0.58440   1.000
    O47     O    0.33337   0.66394   0.53784   1.000
    O48     O    0.63018   0.26270   0.61537   1.000
    O49     O    0.66224   0.17515   0.61562   1.000
    O50     O    0.67022   0.41565   0.63784   1.000
    O51     O    0.66998   0.34355   0.70236   1.000
    O52     O    0.75153   0.19177   0.63778   1.000
    O53     O    0.83026   0.29794   0.65576   1.000
    O54     O    0.74758   0.52286   0.65607   1.000
    O55     O    0.86850   0.45051   0.66584   1.000
    O56     O    0.87008   0.38470   0.73678   1.000
    O57     O    0.83507   0.53908   0.66585   1.000
    O58     O    0.74818   0.36115   0.80798   1.000
    O59     O    0.83749   0.38367   0.82417   1.000
    O60     O    0.75035   0.35624   0.64393   1.000
    O61     O    0.24966   0.64376   0.35605   1.000
    N62     N    0.25022   0.35824   0.64150   1.000
    O63     O    0.40770   0.34798   0.63262   1.000
    O64     O    0.09281   0.36747   0.65165   1.000
    N65     N    0.74979   0.64176   0.35848   1.000
    O66     O    0.59231   0.65202   0.36736   1.000
    O67     O    0.90721   0.63253   0.34834   1.000
    N68     N    0.25414   0.14417   0.36164   1.000
    O69     O    0.22681   0.26949   0.34919   1.000
    O70     O    0.27897   0.01755   0.36821   1.000
    N71     N    0.24555   0.63878   0.85586   1.000
    O72     O    0.22110   0.63250   0.98279   1.000
    O73     O    0.27228   0.65025   0.73004   1.000
    N74     N    0.75446   0.36122   0.14413   1.000
    O75     O    0.77891   0.36750   0.01720   1.000
    O76     O    0.72773   0.34974   0.26995   1.000
    N77     N    0.74587   0.85583   0.63835   1.000
    O78     O    0.72104   0.98245   0.63177   1.000
    O79     O    0.77320   0.73051   0.65079   1.000
loop_
    _geom_bond_atom_site_label_1
    _geom_bond_atom_site_label_2
    _geom_bond_distance
    _geom_bond_site_symmetry_2
    _ccdc_geom_bond_type
    Zr10   O28       0.63874      .   S
    Zr24   O28       0.63874      .   S
    Zr10   O29       0.63832      .   S
    Zr26   O29       0.63832      .   S
    Zr24   O30       1.02513      .   S
    Zr3    O30       1.02513      .   S
    Zr26   O31       1.04070      .   S
    Zr2    O31       1.04070      .   S
    Zr25   O32       0.63835      .   S
    Zr11   O32       0.63835      .   S
    Zr25   O33       1.04832      .   S
    Zr3    O33       1.04832      .   S
    Zr11   O34       0.63897      .   S
    Zr27   O34       0.63897      .   S
    Zr3    O35       1.03945      .   S
    Zr22   O35       1.03945      .   S
    Zr3    O36       1.04520      .   S
    Zr23   O36       1.04520      .   S
    Zr27   O37       1.04404      .   S
    Zr2    O37       1.04404      .   S
    Zr22   O38       0.63845      .   S
    Zr8    O38       0.63845      .   S
    Zr8    O39       0.63865      .   S
    Zr20   O39       0.63865      .   S
    Zr2    O40       1.02599      .   S
    Zr20   O40       1.02599      .   S
    Zr2    O41       1.04648      .   S
    Zr21   O41       1.04648      .   S
    Zr5    O42       0.63856      .   S
    Zr13   O42       0.63856      .   S
    Zr5    O43       0.63889      .   S
    Zr15   O43       0.63889      .   S
    Zr13   O44       1.04649      .   S
    Zr0    O44       1.04649      .   S
    Zr23   O45       0.63889      .   S
    Zr9    O45       0.63889      .   S
    Zr15   O46       1.04520      .   S
    Zr1    O46       1.04520      .   S
    Zr21   O47       0.63855      .   S
    Zr9    O47       0.63855      .   S
    Zr12   O48       1.02599      .   S
    Zr0    O48       1.02599      .   S
    Zr12   O49       0.63865      .   S
    Zr4    O49       0.63865      .   S
    Zr0    O50       1.04404      .   S
    Zr19   O50       1.04404      .   S
    Zr0    O51       1.04070      .   S
    Zr18   O51       1.04070      .   S
    Zr4    O52       0.63845      .   S
    Zr14   O52       0.63845      .   S
    Zr14   O53       1.03946      .   S
    Zr1    O53       1.03946      .   S
    Zr19   O54       0.63897      .   S
    Zr7    O54       0.63897      .   S
    Zr1    O55       1.04831      .   S
    Zr17   O55       1.04831      .   S
    Zr1    O56       1.02513      .   S
    Zr16   O56       1.02513      .   S
    Zr7    O57       0.63836      .   S
    Zr17   O57       0.63836      .   S
    Zr18   O58       0.63832      .   S
    Zr6    O58       0.63832      .   S
    Zr16   O59       0.63874      .   S
    Zr6    O59       0.63874      .   S
    Zr0    O60       1.43154      .   S
    Zr1    O60       1.43154      .   S
    Zr2    O61       1.43153      .   S
    Zr3    O61       1.43153      .   S
    N62    O63       2.28215      .   S
    Zr0    O63       3.31044      .   S
    N62    O64       2.28209      .   S
    Zr1    O64       3.31026  1_655   S
    N65    O66       2.28215      .   S
    Zr2    O66       3.31044      .   S
    N65    O67       2.28208      .   S
    Zr3    O67       3.31027  1_455   S
    N68    O69       1.95357      .   S
    Zr11   O69       2.66854      .   S
    N68    O70       1.94551      .   S
    Zr8    O70       2.66074  1_565   S
    N71    O72       1.94598      .   S
    Zr10   O72       2.66165  1_554   S
    N71    O73       1.95335      .   S
    Zr9    O73       2.66843      .   S
    N74    O75       1.94598      .   S
    Zr6    O75       2.66165  1_556   S
    N74    O76       1.95335      .   S
    Zr5    O76       2.66843      .   S
    N77    O78       1.94551      .   S
    Zr4    O78       2.66075  1_545   S
    N77    O79       1.95357      .   S
    Zr7    O79       2.66853      .   S
