# CIF file generated by openbabel 2.4.90, see http://openbabel.sf.net
data_I
_chemical_name_common ''
_cell_length_a 14.828
_cell_length_b 14.816
_cell_length_c 16.775
_cell_angle_alpha 102.675
_cell_angle_beta 102.684
_cell_angle_gamma 115.839
_space_group_name_H-M_alt 'P 1'
_space_group_name_Hall 'P 1'
loop_
    _symmetry_equiv_pos_as_xyz
    x,y,z
loop_
    _atom_site_label
    _atom_site_type_symbol
    _atom_site_fract_x
    _atom_site_fract_y
    _atom_site_fract_z
    _atom_site_occupancy
    Mc0     Mc   0.29120   0.65440   0.06423   1.000
    Mc1     Mc   0.32447   0.36005   0.12069   1.000
    Mc2     Mc   0.03889   0.42069   0.17244   1.000
    Mc3     Mc   0.65461   0.29144   0.56424   1.000
    Mc4     Mc   0.35992   0.32433   0.62010   1.000
    Mc5     Mc   0.42084   0.03900   0.67228   1.000
    Mc6     Mc   0.96111   0.57934   0.82754   1.000
    Mc7     Mc   0.67553   0.63997   0.87930   1.000
    Mc8     Mc   0.70880   0.34562   0.93575   1.000
    Mc9     Mc   0.57916   0.96103   0.32770   1.000
    Mc10    Mc   0.64008   0.67569   0.37989   1.000
    Mc11    Mc   0.34539   0.70858   0.43573   1.000
