# CIF file generated by openbabel 2.4.90, see http://openbabel.sf.net
data_I
_chemical_name_common ''
_cell_length_a 14.828
_cell_length_b 14.816
_cell_length_c 16.775
_cell_angle_alpha 102.675
_cell_angle_beta 102.684
_cell_angle_gamma 115.839
_space_group_name_H-M_alt 'P 1'
_space_group_name_Hall 'P 1'
loop_
    _symmetry_equiv_pos_as_xyz
    x,y,z
loop_
    _atom_site_label
    _atom_site_type_symbol
    _atom_site_fract_x
    _atom_site_fract_y
    _atom_site_fract_z
    _atom_site_occupancy
    C0      C    0.55318   0.74747   0.86776   1.000
    C1      C    0.12774   0.61287   0.75530   1.000
    C2      C    0.60183   0.14746   0.96563   1.000
    C3      C    0.25205   0.44632   0.63151   1.000
    C4      C    0.38681   0.87208   0.74440   1.000
    C5      C    0.85266   0.39819   0.53443   1.000
    C6      C    0.44682   0.25256   0.13222   1.000
    C7      C    0.87226   0.38716   0.24468   1.000
    C8      C    0.39817   0.85256   0.03436   1.000
    C9      C    0.74795   0.55371   0.36848   1.000
    C10     C    0.61318   0.12794   0.25550   1.000
    C11     C    0.14734   0.60183   0.46555   1.000
