# CIF file generated by openbabel 2.4.90, see http://openbabel.sf.net
data_I
_chemical_name_common ''
_cell_length_a 14.828
_cell_length_b 14.816
_cell_length_c 16.775
_cell_angle_alpha 102.675
_cell_angle_beta 102.684
_cell_angle_gamma 115.839
_space_group_name_H-M_alt 'P 1'
_space_group_name_Hall 'P 1'
loop_
    _symmetry_equiv_pos_as_xyz
    x,y,z
loop_
    _atom_site_label
    _atom_site_type_symbol
    _atom_site_fract_x
    _atom_site_fract_y
    _atom_site_fract_z
    _atom_site_occupancy
    Zr0     Zr   0.52590   0.92493   0.92119   1.000
    Zr1     Zr   0.07463   0.47341   0.57820   1.000
    Zr2     Zr   0.47409   0.07509   0.07879   1.000
    Zr3     Zr   0.92537   0.52661   0.42178   1.000
    Zr4     Zr   0.32889   0.67073   0.74980   1.000
    Zr5     Zr   0.67111   0.32929   0.25011   1.000
    N6      N    0.20757   0.46764   0.10690   1.000
    N7      N    0.46789   0.20780   0.60673   1.000
    N8      N    0.79243   0.53238   0.89309   1.000
    N9      N    0.53211   0.79223   0.39326   1.000
    C10     C    0.15120   0.61718   0.74495   1.000
    O11     O    0.21277   0.63545   0.76126   1.000
    O12     O    0.08724   0.60477   0.77296   1.000
    O13     O    0.12078   0.57743   0.68557   1.000
    C14     C    0.76221   0.53628   0.36716   1.000
    O15     O    0.82501   0.55067   0.38653   1.000
    O16     O    0.72137   0.58349   0.37147   1.000
    O17     O    0.72100   0.46337   0.33186   1.000
    C18     C    0.41484   0.88030   0.03177   1.000
    O19     O    0.37251   0.80407   0.04221   1.000
    O20     O    0.45744   0.88751   0.99757   1.000
    O21     O    0.41899   0.93987   0.04943   1.000
    C22     C    0.38242   0.84857   0.75473   1.000
    O23     O    0.39503   0.91264   0.72677   1.000
    O24     O    0.36418   0.78696   0.73842   1.000
    O25     O    0.42205   0.87893   0.81401   1.000
    C26     C    0.58515   0.11973   0.96822   1.000
    O27     O    0.62749   0.19595   0.95777   1.000
    O28     O    0.58101   0.06015   0.95055   1.000
    O29     O    0.54255   0.11251   0.00241   1.000
    C30     C    0.84879   0.38284   0.25502   1.000
    O31     O    0.87922   0.42259   0.31439   1.000
    O32     O    0.78723   0.36457   0.23870   1.000
    O33     O    0.91275   0.39525   0.22702   1.000
    C34     C    0.61757   0.15145   0.24523   1.000
    O35     O    0.57795   0.12109   0.18596   1.000
    O36     O    0.60496   0.08738   0.27319   1.000
    O37     O    0.63581   0.21306   0.26154   1.000
    C38     C    0.53570   0.76167   0.86648   1.000
    O39     O    0.46288   0.72045   0.83131   1.000
    O40     O    0.58306   0.72097   0.87080   1.000
    O41     O    0.55001   0.82452   0.88584   1.000
    C42     C    0.88039   0.41484   0.53185   1.000
    O43     O    0.93973   0.41868   0.54924   1.000
    O44     O    0.80420   0.37259   0.54228   1.000
    O45     O    0.88779   0.45774   0.49789   1.000
    C46     C    0.11960   0.58519   0.46813   1.000
    O47     O    0.11221   0.54229   0.50210   1.000
    O48     O    0.19579   0.62744   0.45771   1.000
    O49     O    0.06026   0.58134   0.45074   1.000
    C50     C    0.46429   0.23835   0.13350   1.000
    O51     O    0.53712   0.27957   0.16865   1.000
    O52     O    0.44999   0.17550   0.11414   1.000
    O53     O    0.41694   0.27905   0.12918   1.000
    C54     C    0.23778   0.46374   0.63279   1.000
    O55     O    0.27863   0.41653   0.62850   1.000
    O56     O    0.17499   0.44935   0.61344   1.000
    O57     O    0.27900   0.53666   0.66807   1.000
loop_
    _geom_bond_atom_site_label_1
    _geom_bond_atom_site_label_2
    _geom_bond_distance
    _geom_bond_site_symmetry_2
    _ccdc_geom_bond_type
    C10    O11       0.78991      .   S
    Zr4    O11       1.63696      .   S
    C10    O12       1.11163      .   S
    N8     O12       5.00515  1_655   S
    C10    O13       0.92521      .   S
    Zr1    O13       1.84631      .   S
    C14    O15       0.82566      .   S
    Zr3    O15       1.69104      .   S
    C14    O16       1.10801      .   S
    N9     O16       5.00938      .   S
    C14    O17       0.93595      .   S
    Zr5    O17       1.85793      .   S
    C18    O19       1.10332      .   S
    N6     O19       4.99174      .   S
    C18    O20       0.93102  1_554   S
    Zr0    O20       1.83628      .   S
    C18    O21       0.83707      .   S
    Zr2    O21       1.69910  1_545   S
    C22    O23       1.11149      .   S
    N7     O23       5.00468  1_545   S
    C22    O24       0.78990      .   S
    Zr4    O24       1.63656      .   S
    C22    O25       0.92369      .   S
    Zr0    O25       1.84388      .   S
    C26    O27       1.10337      .   S
    N8     O27       4.99166      .   S
    C26    O28       0.83708      .   S
    Zr0    O28       1.69909  1_565   S
    C26    O29       0.93097  1_556   S
    Zr2    O29       1.83623      .   S
    C30    O31       0.92515      .   S
    Zr3    O31       1.84656      .   S
    C30    O32       0.78991      .   S
    Zr5    O32       1.63665      .   S
    C30    O33       1.11151      .   S
    N6     O33       5.00498  1_455   S
    C34    O35       0.92351      .   S
    Zr2    O35       1.84378      .   S
    C34    O36       1.11151      .   S
    N9     O36       5.00498  1_565   S
    C34    O37       0.78990      .   S
    Zr5    O37       1.63687      .   S
    C38    O39       0.93511      .   S
    Zr4    O39       1.85707      .   S
    C38    O40       1.10800      .   S
    N8     O40       5.00961      .   S
    C38    O41       0.82615      .   S
    Zr0    O41       1.69173      .   S
    C42    O43       0.83596      .   S
    Zr1    O43       1.69736  1_455   S
    C42    O44       1.10321      .   S
    N7     O44       4.99114      .   S
    C42    O45       0.93077      .   S
    Zr3    O45       1.83579      .   S
    C46    O47       0.93076      .   S
    Zr1    O47       1.83570      .   S
    C46    O48       1.10323      .   S
    N9     O48       4.99109      .   S
    C46    O49       0.83596      .   S
    Zr3    O49       1.69736  1_655   S
    C50    O51       0.93504      .   S
    Zr5    O51       1.85671      .   S
    C50    O52       0.82615      .   S
    Zr2    O52       1.69175      .   S
    C50    O53       1.10800      .   S
    N6     O53       5.00961      .   S
    C54    O55       1.10799      .   S
    N7     O55       5.00937      .   S
    C54    O56       0.82564      .   S
    Zr1    O56       1.69101      .   S
    C54    O57       0.93585      .   S
    Zr4    O57       1.85778      .   S
