# CIF file generated by openbabel 2.4.90, see http://openbabel.sf.net
data_I
_chemical_name_common ''
_cell_length_a 14.828
_cell_length_b 14.816
_cell_length_c 16.775
_cell_angle_alpha 102.675
_cell_angle_beta 102.684
_cell_angle_gamma 115.839
_space_group_name_H-M_alt 'P 1'
_space_group_name_Hall 'P 1'
loop_
    _symmetry_equiv_pos_as_xyz
    x,y,z
loop_
    _atom_site_label
    _atom_site_type_symbol
    _atom_site_fract_x
    _atom_site_fract_y
    _atom_site_fract_z
    _atom_site_occupancy
    Zr0     Zr   0.52590   0.92493   0.92119   1.000
    Zr1     Zr   0.07463   0.47341   0.57820   1.000
    Zr2     Zr   0.47409   0.07509   0.07879   1.000
    Zr3     Zr   0.92537   0.52661   0.42178   1.000
    Zr4     Zr   0.32889   0.67073   0.74980   1.000
    Zr5     Zr   0.67111   0.32929   0.25011   1.000
    Zr6     Zr   0.55318   0.74747   0.86776   1.000
    Zr7     Zr   0.12774   0.61287   0.75530   1.000
    Zr8     Zr   0.60183   0.14746   0.96563   1.000
    Zr9     Zr   0.25205   0.44632   0.63151   1.000
    Zr10    Zr   0.38681   0.87208   0.74440   1.000
    Zr11    Zr   0.85266   0.39819   0.53443   1.000
    Zr12    Zr   0.44682   0.25256   0.13222   1.000
    Zr13    Zr   0.87226   0.38716   0.24468   1.000
    Zr14    Zr   0.39817   0.85256   0.03436   1.000
    Zr15    Zr   0.74795   0.55371   0.36848   1.000
    Zr16    Zr   0.61318   0.12794   0.25550   1.000
    Zr17    Zr   0.14734   0.60183   0.46555   1.000
    Zr18    Zr   0.45121   0.68772   0.84248   1.000
    Zr19    Zr   0.60272   0.84982   0.88920   1.000
    Zr20    Zr   0.21979   0.63672   0.80534   1.000
    Zr21    Zr   0.10608   0.60195   0.67420   1.000
    Zr22    Zr   0.52581   0.13551   0.99443   1.000
    Zr23    Zr   0.62782   0.07620   0.94459   1.000
    Zr24    Zr   0.31155   0.54841   0.65690   1.000
    Zr25    Zr   0.14976   0.39651   0.60997   1.000
    Zr26    Zr   0.36300   0.77997   0.69440   1.000
    Zr27    Zr   0.39745   0.89366   0.82540   1.000
    Zr28    Zr   0.86501   0.47467   0.50606   1.000
    Zr29    Zr   0.92352   0.37165   0.55507   1.000
    Zr30    Zr   0.54879   0.31230   0.15750   1.000
    Zr31    Zr   0.39727   0.15020   0.11078   1.000
    Zr32    Zr   0.78021   0.36331   0.19464   1.000
    Zr33    Zr   0.89391   0.39807   0.32573   1.000
    Zr34    Zr   0.47419   0.86451   0.00555   1.000
    Zr35    Zr   0.37218   0.92382   0.05540   1.000
    Zr36    Zr   0.68845   0.45162   0.34300   1.000
    Zr37    Zr   0.85024   0.60351   0.39001   1.000
    Zr38    Zr   0.63699   0.22006   0.30559   1.000
    Zr39    Zr   0.60255   0.10636   0.17459   1.000
    Zr40    Zr   0.13499   0.52536   0.49393   1.000
    Zr41    Zr   0.07648   0.62838   0.44492   1.000
    O42     O    0.43618   0.85853   0.01996   1.000
    O43     O    0.50004   0.89472   0.96337   1.000
    O44     O    0.38517   0.88819   0.04488   1.000
    O45     O    0.42314   0.99945   0.06710   1.000
    O46     O    0.43568   0.11264   0.09479   1.000
    O47     O    0.53832   0.09073   0.12669   1.000
    O48     O    0.49995   0.10530   0.03661   1.000
    O49     O    0.42205   0.20138   0.12150   1.000
    O50     O    0.49780   0.28243   0.14486   1.000
    O51     O    0.60995   0.32080   0.20380   1.000
    O52     O    0.60786   0.11715   0.21504   1.000
    O53     O    0.82623   0.37523   0.21966   1.000
    O54     O    0.72566   0.34630   0.22237   1.000
    O55     O    0.88309   0.39261   0.28521   1.000
    O56     O    0.65405   0.27468   0.27785   1.000
    O57     O    0.67978   0.39045   0.29656   1.000
    O58     O    0.62509   0.17400   0.28054   1.000
    O59     O    0.90964   0.46234   0.37376   1.000
    O60     O    0.71820   0.50266   0.35574   1.000
    O61     O    0.79910   0.57861   0.37924   1.000
    O62     O    0.88781   0.56506   0.40590   1.000
    O63     O    0.00092   0.57749   0.43335   1.000
    O64     O    0.89519   0.50064   0.46392   1.000
    O65     O    0.11191   0.61510   0.45524   1.000
    O66     O    0.14117   0.56359   0.47974   1.000
    O67     O    0.10481   0.49938   0.53607   1.000
    O68     O    0.85883   0.43643   0.52024   1.000
    O69     O    0.88809   0.38492   0.54475   1.000
    O70     O    0.99907   0.42253   0.56663   1.000
    O71     O    0.11219   0.43496   0.59409   1.000
    O72     O    0.09036   0.53768   0.62620   1.000
    O73     O    0.20090   0.42141   0.62074   1.000
    O74     O    0.28180   0.49736   0.64421   1.000
    O75     O    0.32022   0.60957   0.70335   1.000
    O76     O    0.11691   0.60741   0.71475   1.000
    O77     O    0.37491   0.82602   0.71940   1.000
    O78     O    0.34595   0.72535   0.72210   1.000
    O79     O    0.39213   0.88287   0.78490   1.000
    O80     O    0.27434   0.65372   0.77757   1.000
    O81     O    0.39005   0.67923   0.79614   1.000
    O82     O    0.17376   0.62479   0.78032   1.000
    O83     O    0.46168   0.90930   0.87329   1.000
    O84     O    0.50219   0.71759   0.85512   1.000
    O85     O    0.57795   0.79864   0.87848   1.000
    O86     O    0.56431   0.88738   0.90520   1.000
    O87     O    0.57686   0.00057   0.93289   1.000
    O88     O    0.61482   0.11183   0.95511   1.000
    O89     O    0.56382   0.14149   0.98003   1.000
    N90     N    0.20757   0.46764   0.10690   1.000
    O91     O    0.33017   0.72785   0.05265   1.000
    O92     O    0.36959   0.31974   0.12485   1.000
    O93     O    0.97671   0.40766   0.19901   1.000
    N94     N    0.46789   0.20780   0.60673   1.000
    O95     O    0.72801   0.33034   0.55270   1.000
    O96     O    0.31947   0.36932   0.62421   1.000
    O97     O    0.40764   0.97672   0.69881   1.000
    N98     N    0.79243   0.53238   0.89309   1.000
    O99     O    0.02328   0.59236   0.80097   1.000
    O100    O    0.63041   0.68028   0.87513   1.000
    O101    O    0.66982   0.27218   0.94732   1.000
    N102    N    0.53211   0.79223   0.39326   1.000
    O103    O    0.59236   0.02330   0.30115   1.000
    O104    O    0.68052   0.63070   0.37578   1.000
    O105    O    0.27198   0.66968   0.44728   1.000
loop_
    _geom_bond_atom_site_label_1
    _geom_bond_atom_site_label_2
    _geom_bond_distance
    _geom_bond_site_symmetry_2
    _ccdc_geom_bond_type
    Zr34   O42       0.63997      .   S
    Zr14   O42       0.63997      .   S
    Zr34   O43       0.97805  1_554   S
    Zr0    O43       0.97805      .   S
    Zr14   O44       0.64006      .   S
    Zr35   O44       0.64006      .   S
    Zr35   O45       0.98260      .   S
    Zr2    O45       0.98260  1_545   S
    Zr2    O46       0.99186      .   S
    Zr31   O46       0.99186      .   S
    Zr2    O47       0.99813      .   S
    Zr39   O47       0.99813      .   S
    Zr2    O48       0.97805      .   S
    Zr22   O48       0.97805  1_556   S
    Zr31   O49       0.64078      .   S
    Zr12   O49       0.64078      .   S
    Zr12   O50       0.63968      .   S
    Zr30   O50       0.63968      .   S
    Zr30   O51       0.99491      .   S
    Zr5    O51       0.99491      .   S
    Zr39   O52       0.64050      .   S
    Zr16   O52       0.64050      .   S
    Zr32   O53       0.64008      .   S
    Zr13   O53       0.64008      .   S
    Zr32   O54       0.98654      .   S
    Zr5    O54       0.98654      .   S
    Zr13   O55       0.64116      .   S
    Zr33   O55       0.64116      .   S
    Zr5    O56       0.98684      .   S
    Zr38   O56       0.98684      .   S
    Zr5    O57       0.99465      .   S
    Zr36   O57       0.99465      .   S
    Zr16   O58       0.64023      .   S
    Zr38   O58       0.64023      .   S
    Zr33   O59       0.99870      .   S
    Zr3    O59       0.99870      .   S
    Zr36   O60       0.63960      .   S
    Zr15   O60       0.63960      .   S
    Zr15   O61       0.64080      .   S
    Zr37   O61       0.64080      .   S
    Zr37   O62       0.99185      .   S
    Zr3    O62       0.99185      .   S
    Zr3    O63       0.98246  1_655   S
    Zr41   O63       0.98246      .   S
    Zr3    O64       0.97786      .   S
    Zr28   O64       0.97786      .   S
    Zr41   O65       0.64007      .   S
    Zr17   O65       0.64007      .   S
    Zr17   O66       0.63997      .   S
    Zr40   O66       0.63997      .   S
    Zr40   O67       0.97778      .   S
    Zr1    O67       0.97778      .   S
    Zr28   O68       0.63992      .   S
    Zr11   O68       0.63992      .   S
    Zr11   O69       0.64008      .   S
    Zr29   O69       0.64008      .   S
    Zr29   O70       0.98248      .   S
    Zr1    O70       0.98248  1_455   S
    Zr1    O71       0.99185      .   S
    Zr25   O71       0.99185      .   S
    Zr1    O72       0.99847      .   S
    Zr21   O72       0.99847      .   S
    Zr25   O73       0.64079      .   S
    Zr9    O73       0.64079      .   S
    Zr9    O74       0.63966      .   S
    Zr24   O74       0.63966      .   S
    Zr24   O75       0.99470      .   S
    Zr4    O75       0.99470      .   S
    Zr21   O76       0.64157      .   S
    Zr7    O76       0.64157      .   S
    Zr26   O77       0.63997      .   S
    Zr10   O77       0.63997      .   S
    Zr26   O78       0.98637      .   S
    Zr4    O78       0.98637      .   S
    Zr10   O79       0.64122      .   S
    Zr27   O79       0.64122      .   S
    Zr4    O80       0.98695      .   S
    Zr20   O80       0.98695      .   S
    Zr4    O81       0.99523      .   S
    Zr18   O81       0.99523      .   S
    Zr7    O82       0.64008      .   S
    Zr20   O82       0.64008      .   S
    Zr27   O83       0.99809      .   S
    Zr0    O83       0.99809      .   S
    Zr18   O84       0.63968      .   S
    Zr6    O84       0.63968      .   S
    Zr6    O85       0.64078      .   S
    Zr19   O85       0.64078      .   S
    Zr19   O86       0.99185      .   S
    Zr0    O86       0.99185      .   S
    Zr0    O87       0.98258  1_565   S
    Zr23   O87       0.98258      .   S
    Zr23   O88       0.64006      .   S
    Zr8    O88       0.64006      .   S
    Zr8    O89       0.63992      .   S
    Zr22   O89       0.63992      .   S
    N90    O91       3.89260      .   S
    Zr14   O91       1.81265      .   S
    N90    O92       3.90190      .   S
    Zr12   O92       1.81737      .   S
    N90    O93       3.89471  1_455   S
    Zr13   O93       1.81414      .   S
    N94    O95       3.89202      .   S
    Zr11   O95       1.81238      .   S
    N94    O96       3.90164      .   S
    Zr9    O96       1.81728      .   S
    N94    O97       3.89436  1_545   S
    Zr10   O97       1.81400      .   S
    N98    O99       3.89475  1_655   S
    Zr7    O99       1.81421      .   S
    N98    O100      3.90190      .   S
    Zr6    O100      1.81737      .   S
    N98    O101      3.89247      .   S
    Zr8    O101      1.81277      .   S
    N102   O103      3.89465  1_565   S
    Zr16   O103      1.81467      .   S
    N102   O104      3.90164      .   S
    Zr15   O104      1.81728      .   S
    N102   O105      3.89195      .   S
    Zr17   O105      1.81236      .   S
