# CIF file generated by openbabel 2.4.90, see http://openbabel.sf.net
data_I
_chemical_name_common ''
_cell_length_a 18.42
_cell_length_b 18.428
_cell_length_c 18.43
_cell_angle_alpha 60.169
_cell_angle_beta 60.182
_cell_angle_gamma 60.18
_space_group_name_H-M_alt 'P 1'
_space_group_name_Hall 'P 1'
loop_
    _symmetry_equiv_pos_as_xyz
    x,y,z
loop_
    _atom_site_label
    _atom_site_type_symbol
    _atom_site_fract_x
    _atom_site_fract_y
    _atom_site_fract_z
    _atom_site_occupancy
    H0      H    0.04864   0.56773   0.04860   1.000
    H1      H    0.56816   0.04832   0.33569   1.000
    H2      H    0.04756   0.33571   0.04760   1.000
    H3      H    0.33564   0.04835   0.56808   1.000
    H4      H    0.04755   0.04761   0.33571   1.000
    H5      H    0.56817   0.33569   0.04830   1.000
    H6      H    0.04863   0.04863   0.56770   1.000
    H7      H    0.33564   0.56811   0.04833   1.000
    H8      H    0.04828   0.33569   0.56811   1.000
    H9      H    0.56792   0.04854   0.04852   1.000
    H10     H    0.04826   0.56816   0.33568   1.000
    H11     H    0.33566   0.04764   0.04762   1.000
    H12     H    0.43210   0.95148   0.95144   1.000
    H13     H    0.95175   0.43186   0.66428   1.000
    H14     H    0.66436   0.95238   0.95234   1.000
    H15     H    0.95173   0.66433   0.43185   1.000
    H16     H    0.95246   0.95241   0.66425   1.000
    H17     H    0.66438   0.43190   0.95160   1.000
    H18     H    0.95139   0.95139   0.43227   1.000
    H19     H    0.43185   0.66433   0.95166   1.000
    H20     H    0.66438   0.95166   0.43189   1.000
    H21     H    0.95137   0.43229   0.95138   1.000
    H22     H    0.43186   0.95170   0.66428   1.000
    H23     H    0.95245   0.66430   0.95238   1.000
    C24     C    0.02694   0.53883   0.02692   1.000
    C25     C    0.53908   0.02676   0.40766   1.000
    C26     C    0.02634   0.40768   0.02637   1.000
    C27     C    0.40764   0.02678   0.53902   1.000
    C28     C    0.02634   0.02637   0.40767   1.000
    C29     C    0.53909   0.40767   0.02675   1.000
    C30     C    0.02694   0.02694   0.53881   1.000
    C31     C    0.40764   0.53904   0.02670   1.000
    C32     C    0.02674   0.40767   0.53904   1.000
    C33     C    0.53894   0.02689   0.02680   1.000
    C34     C    0.02673   0.53908   0.40766   1.000
    C35     C    0.40765   0.02639   0.02637   1.000
    C36     C    0.46108   0.97313   0.97309   1.000
    C37     C    0.97329   0.46094   0.59231   1.000
    C38     C    0.59237   0.97363   0.97359   1.000
    C39     C    0.97328   0.59234   0.46093   1.000
    C40     C    0.97367   0.97365   0.59229   1.000
    C41     C    0.59237   0.46097   0.97320   1.000
    C42     C    0.97307   0.97308   0.46116   1.000
    C43     C    0.46093   0.59235   0.97321   1.000
    C44     C    0.59237   0.97324   0.46090   1.000
    C45     C    0.97307   0.46118   0.97305   1.000
    C46     C    0.46093   0.97326   0.59231   1.000
    C47     C    0.97367   0.59233   0.97361   1.000
    C48     C    0.11097   0.38871   0.11090   1.000
    C49     C    0.05363   0.44617   0.05360   1.000
    C50     C    0.38906   0.11132   0.38904   1.000
    C51     C    0.44638   0.05386   0.44636   1.000
    C52     C    0.11096   0.11097   0.38870   1.000
    C53     C    0.05362   0.05365   0.44616   1.000
    C54     C    0.38907   0.38904   0.11131   1.000
    C55     C    0.44638   0.44637   0.05380   1.000
    C56     C    0.11122   0.38910   0.38908   1.000
    C57     C    0.05380   0.44640   0.44638   1.000
    C58     C    0.38883   0.11091   0.11092   1.000
    C59     C    0.44624   0.05361   0.05361   1.000
    C60     C    0.61119   0.88911   0.88904   1.000
    C61     C    0.55378   0.94641   0.94636   1.000
    C62     C    0.88880   0.61092   0.61089   1.000
    C63     C    0.94622   0.55361   0.55359   1.000
    C64     C    0.88905   0.88905   0.61126   1.000
    C65     C    0.94639   0.94637   0.55381   1.000
    C66     C    0.61095   0.61097   0.88866   1.000
    C67     C    0.55363   0.55364   0.94612   1.000
    C68     C    0.61096   0.88870   0.61093   1.000
    C69     C    0.55364   0.94616   0.55361   1.000
    C70     C    0.88904   0.61131   0.88902   1.000
    C71     C    0.94638   0.55384   0.94634   1.000
    O72     O    0.24994   0.24992   0.24992   1.000
    O73     O    0.75007   0.75009   0.75005   1.000
    O74     O    0.13315   0.42824   0.13335   1.000
    O75     O    0.42865   0.13333   0.30528   1.000
    O76     O    0.13300   0.30494   0.13273   1.000
    O77     O    0.30526   0.13358   0.42861   1.000
    O78     O    0.13300   0.13274   0.30494   1.000
    O79     O    0.42866   0.30527   0.13333   1.000
    O80     O    0.13315   0.13336   0.42823   1.000
    O81     O    0.30527   0.42862   0.13358   1.000
    O82     O    0.13334   0.30532   0.42865   1.000
    O83     O    0.42841   0.13318   0.13319   1.000
    O84     O    0.13335   0.42868   0.30531   1.000
    O85     O    0.30502   0.13283   0.13284   1.000
    O86     O    0.57161   0.86683   0.86678   1.000
    O87     O    0.86667   0.57134   0.69466   1.000
    O88     O    0.69500   0.86719   0.86712   1.000
    O89     O    0.86667   0.69469   0.57131   1.000
    O90     O    0.86702   0.86728   0.69502   1.000
    O91     O    0.69475   0.57140   0.86630   1.000
    O92     O    0.86687   0.86665   0.57170   1.000
    O93     O    0.57135   0.69474   0.86664   1.000
    O94     O    0.69475   0.86643   0.57136   1.000
    O95     O    0.86687   0.57177   0.86662   1.000
    O96     O    0.57136   0.86669   0.69469   1.000
    O97     O    0.86701   0.69508   0.86724   1.000
loop_
    _geom_bond_atom_site_label_1
    _geom_bond_atom_site_label_2
    _geom_bond_distance
    _geom_bond_site_symmetry_2
    _ccdc_geom_bond_type
    C26    H2        1.08862      .   S
    C26    C49       1.40261      .   S
    C26    C45       1.39050  1_454   S
    C35    H11       1.08861      .   S
    C35    C59       1.40332      .   S
    C35    C36       1.39035  1_544   S
    C31    H7        1.08860      .   S
    C31    C55       1.40321      .   S
    C31    C43       1.39040  1_554   S
    C29    H5        1.08859      .   S
    C29    C55       1.40320      .   S
    C29    C41       1.39042  1_554   S
    C33    H9        1.08968      .   S
    C33    C59       1.40319      .   S
    C33    C38       1.38944  1_544   S
    C24    H0        1.08863      .   S
    C24    C49       1.40336      .   S
    C24    C47       1.39038  1_454   S
    C49    C48       1.49545      .   S
    C59    C58       1.49567      .   S
    C55    C54       1.49551      .   S
    C48    O76       1.27714      .   S
    C48    O74       1.27783      .   S
    C58    O85       1.27727      .   S
    C58    O83       1.27718      .   S
    C54    O79       1.27714      .   S
    C54    O81       1.27714      .   S
    O78    C52       1.27725      .   S
    O75    C50       1.27712      .   S
    O84    C56       1.27720      .   S
    H10    C34       1.08867      .   S
    H1     C25       1.08853      .   S
    H4     C28       1.08860      .   S
    C52    O80       1.27712      .   S
    C52    C53       1.49566      .   S
    C50    O77       1.27713      .   S
    C50    C51       1.49549      .   S
    C56    O82       1.27713      .   S
    C56    C57       1.49560      .   S
    C25    C51       1.40318      .   S
    C25    C44       1.38971  1_545   S
    C34    C57       1.40321      .   S
    C34    C39       1.39035  1_455   S
    C28    C53       1.40321      .   S
    C28    C42       1.39001  1_445   S
    H15    C39       1.08861      .   S
    H20    C44       1.08853      .   S
    H18    C42       1.08859      .   S
    C53    C30       1.40333      .   S
    C51    C27       1.40320      .   S
    C57    C32       1.40316      .   S
    C44    C69       1.40392      .   S
    C39    C63       1.40316      .   S
    C42    C65       1.40333      .   S
    C30    H6        1.08856      .   S
    C30    C40       1.39002  1_445   S
    C27    H3        1.08859      .   S
    C27    C46       1.39036  1_545   S
    C32    H8        1.08858      .   S
    C32    C37       1.39037  1_455   S
    C63    C37       1.40321      .   S
    C63    C62       1.49560      .   S
    C69    C46       1.40318      .   S
    C69    C68       1.49549      .   S
    C65    C40       1.40306      .   S
    C65    C64       1.49566      .   S
    O89    C62       1.27714      .   S
    O94    C68       1.27713      .   S
    O92    C64       1.27762      .   S
    C40    H16       1.08860      .   S
    C46    H22       1.08853      .   S
    C37    H13       1.08852      .   S
    C62    O87       1.27720      .   S
    C68    O96       1.27712      .   S
    C64    O90       1.27725      .   S
    O91    C66       1.27713      .   S
    O95    C70       1.27707      .   S
    O93    C66       1.27716      .   S
    O86    C60       1.27708      .   S
    O88    C60       1.27728      .   S
    O97    C70       1.27729      .   S
    C66    C67       1.49551      .   S
    C70    C71       1.49566      .   S
    C60    C61       1.49584      .   S
    C67    C41       1.40321      .   S
    C67    C43       1.40319      .   S
    C71    C45       1.40331      .   S
    C71    C47       1.40320      .   S
    C61    C36       1.40331      .   S
    C61    C38       1.40314      .   S
    H21    C45       1.08849      .   S
    H12    C36       1.08866      .   S
    H17    C41       1.08859      .   S
    H19    C43       1.08859      .   S
    H14    C38       1.08861      .   S
    H23    C47       1.08862      .   S
