# CIF file generated by openbabel 2.4.90, see http://openbabel.sf.net
data_I
_chemical_name_common ''
_cell_length_a 18.42
_cell_length_b 18.428
_cell_length_c 18.43
_cell_angle_alpha 60.169
_cell_angle_beta 60.182
_cell_angle_gamma 60.18
_space_group_name_H-M_alt 'P 1'
_space_group_name_Hall 'P 1'
loop_
    _symmetry_equiv_pos_as_xyz
    x,y,z
loop_
    _atom_site_label
    _atom_site_type_symbol
    _atom_site_fract_x
    _atom_site_fract_y
    _atom_site_fract_z
    _atom_site_occupancy
    Zr0     Zr   0.20663   0.38035   0.20677   1.000
    Zr1     Zr   0.38043   0.20662   0.20663   1.000
    Zr2     Zr   0.20633   0.20621   0.20622   1.000
    Zr3     Zr   0.20663   0.20677   0.38034   1.000
    Zr4     Zr   0.61959   0.79339   0.79334   1.000
    Zr5     Zr   0.79339   0.61966   0.79300   1.000
    Zr6     Zr   0.79369   0.79380   0.79375   1.000
    Zr7     Zr   0.79338   0.79324   0.61963   1.000
    N8      N    0.50001   0.50001   0.99997   1.000
    O9      O    0.54774   0.62204   0.91498   1.000
    O10     O    0.45228   0.37798   0.08497   1.000
    O11     O    0.37798   0.45225   0.08507   1.000
    O12     O    0.62204   0.54777   0.91481   1.000
    N13     N    0.50001   0.00001   0.49998   1.000
    O14     O    0.45227   0.08499   0.37797   1.000
    O15     O    0.54774   0.91502   0.62200   1.000
    O16     O    0.62204   0.91492   0.54774   1.000
    O17     O    0.37798   0.08509   0.45223   1.000
    N18     N    0.00001   0.50001   0.99998   1.000
    O19     O    0.91507   0.54786   0.91490   1.000
    O20     O    0.91518   0.62222   0.91524   1.000
    O21     O    0.08495   0.45215   0.08502   1.000
    O22     O    0.08484   0.37779   0.08473   1.000
    N23     N    0.00001   0.50001   0.49998   1.000
    O24     O    0.91502   0.54775   0.62191   1.000
    O25     O    0.08500   0.45226   0.37801   1.000
    O26     O    0.08500   0.37803   0.45224   1.000
    O27     O    0.91502   0.62199   0.54773   1.000
    N28     N    0.50001   0.00001   0.99998   1.000
    O29     O    0.37784   0.08476   0.08475   1.000
    O30     O    0.62218   0.91525   0.91521   1.000
    O31     O    0.54781   0.91506   0.91502   1.000
    O32     O    0.45221   0.08496   0.08494   1.000
    N33     N    0.00001   0.00001   0.49998   1.000
    O34     O    0.08484   0.08474   0.37778   1.000
    O35     O    0.91518   0.91528   0.62218   1.000
    O36     O    0.08495   0.08504   0.45213   1.000
    O37     O    0.91507   0.91498   0.54782   1.000
    N38     N    0.75007   0.75009   0.75005   1.000
    O39     O    0.76090   0.71749   0.76079   1.000
    O40     O    0.76090   0.76088   0.71744   1.000
    O41     O    0.71745   0.76092   0.76087   1.000
    O42     O    0.76098   0.76102   0.76098   1.000
    N43     N    0.24994   0.24992   0.24992   1.000
    O44     O    0.23911   0.28253   0.23913   1.000
    O45     O    0.23912   0.23913   0.28253   1.000
    O46     O    0.28256   0.23909   0.23910   1.000
    O47     O    0.23904   0.23899   0.23900   1.000
loop_
    _geom_bond_atom_site_label_1
    _geom_bond_atom_site_label_2
    _geom_bond_distance
    _geom_bond_site_symmetry_2
    _ccdc_geom_bond_type
    N8     O9        2.31860      .   S
    Zr4    O9        3.30326      .   S
    N8     O10       2.31861  1_556   S
    Zr1    O10       3.30327      .   S
    N8     O11       2.31849  1_556   S
    Zr0    O11       3.30306      .   S
    N8     O12       2.31850      .   S
    Zr5    O12       3.30308      .   S
    N13    O14       2.31853      .   S
    Zr1    O14       3.30319      .   S
    N13    O15       2.31858  1_545   S
    Zr4    O15       3.30325      .   S
    N13    O16       2.31841  1_545   S
    Zr7    O16       3.30292      .   S
    N13    O17       2.31838      .   S
    Zr3    O17       3.30288      .   S
    N18    O19       2.31872  1_455   S
    Zr5    O19       3.30480      .   S
    N18    O20       2.31963  1_455   S
    Zr6    O20       3.30474      .   S
    N18    O21       2.31805  1_556   S
    Zr0    O21       3.30265      .   S
    N18    O22       2.31968  1_556   S
    Zr2    O22       3.30481      .   S
    N23    O24       2.31794  1_455   S
    Zr5    O24       3.30107      .   S
    N23    O25       2.31867      .   S
    Zr0    O25       3.30330      .   S
    N23    O26       2.31860      .   S
    Zr3    O26       3.30317      .   S
    N23    O27       2.31859  1_455   S
    Zr7    O27       3.30321      .   S
    N28    O29       2.31952  1_556   S
    Zr2    O29       3.30454      .   S
    N28    O30       2.31949  1_545   S
    Zr6    O30       3.30445      .   S
    N28    O31       2.31827  1_545   S
    Zr4    O31       3.30290      .   S
    N28    O32       2.31835  1_556   S
    Zr1    O32       3.30297      .   S
    N33    O34       2.31950      .   S
    Zr2    O34       3.30456      .   S
    N33    O35       2.31951  1_445   S
    Zr6    O35       3.30459      .   S
    N33    O36       2.31784      .   S
    Zr3    O36       3.30239      .   S
    N33    O37       2.31787  1_445   S
    Zr7    O37       3.30232      .   S
    N38    O39       0.49172      .   S
    Zr5    O39       1.47515      .   S
    N38    O40       0.49172      .   S
    Zr7    O40       1.47516      .   S
    N38    O41       0.49174      .   S
    Zr4    O41       1.47523      .   S
    N38    O42       0.49214      .   S
    Zr6    O42       1.47641      .   S
    N43    O44       0.49172      .   S
    Zr0    O44       1.47515      .   S
    N43    O45       0.49172      .   S
    Zr3    O45       1.47516      .   S
    N43    O46       0.49174      .   S
    Zr1    O46       1.47523      .   S
    N43    O47       0.49213      .   S
    Zr2    O47       1.47638      .   S
