# CIF file generated by openbabel 2.4.90, see http://openbabel.sf.net
data_I
_chemical_name_common ''
_cell_length_a 6.754
_cell_length_b 6.935
_cell_length_c 6.966
_cell_angle_alpha 90
_cell_angle_beta 90.011
_cell_angle_gamma 90.005
_space_group_name_H-M_alt 'P 1'
_space_group_name_Hall 'P 1'
loop_
    _symmetry_equiv_pos_as_xyz
    x,y,z
loop_
    _atom_site_label
    _atom_site_type_symbol
    _atom_site_fract_x
    _atom_site_fract_y
    _atom_site_fract_z
    _atom_site_occupancy
    Zr0     Zr   0.00013   0.00002   0.00006   1.000
    Zr1     Zr   0.99707   0.50004   0.50013   1.000
    N2      N    0.50007   0.00003   0.99933   1.000
    O3      O    0.67717   0.00004   0.99952   1.000
    O4      O    0.32302   0.00004   0.99948   1.000
    N5      N    0.99853   0.25277   0.25312   1.000
    O6      O    0.99908   0.17476   0.17482   1.000
    O7      O    0.99801   0.32941   0.32991   1.000
    N8      N    0.99850   0.25274   0.74706   1.000
    O9      O    0.99800   0.32940   0.67030   1.000
    O10     O    0.99906   0.17473   0.82534   1.000
    N11     N    0.99846   0.74731   0.74708   1.000
    O12     O    0.99796   0.67066   0.67031   1.000
    O13     O    0.99902   0.82532   0.82535   1.000
    N14     N    0.99849   0.74728   0.25311   1.000
    O15     O    0.99798   0.67065   0.32990   1.000
    O16     O    0.99905   0.82529   0.17481   1.000
loop_
    _geom_bond_atom_site_label_1
    _geom_bond_atom_site_label_2
    _geom_bond_distance
    _geom_bond_site_symmetry_2
    _ccdc_geom_bond_type
    N2     O3        1.19614      .   S
    Zr0    O3        2.18123  1_454   S
    N2     O4        1.19579      .   S
    Zr0    O4        2.18084  1_554   S
    N5     O6        0.76826      .   S
    Zr0    O6        1.71776  1_455   S
    N5     O7        0.75407      .   S
    Zr1    O7        1.67518      .   S
    N8     O9        0.75402      .   S
    Zr1    O9        1.67505      .   S
    N8     O10       0.76813      .   S
    Zr0    O10       1.71738  1_454   S
    N11    O12       0.75401      .   S
    Zr1    O12       1.67501      .   S
    N11    O13       0.76809      .   S
    Zr0    O13       1.71724  1_444   S
    N14    O15       0.75404      .   S
    Zr1    O15       1.67512      .   S
    N14    O16       0.76822      .   S
    Zr0    O16       1.71765  1_445   S
