# CIF file generated by openbabel 2.4.90, see http://openbabel.sf.net
data_I
_chemical_name_common ''
_cell_length_a 12.575
_cell_length_b 12.867
_cell_length_c 14.514
_cell_angle_alpha 88.632
_cell_angle_beta 88.664
_cell_angle_gamma 86.105
_space_group_name_H-M_alt 'P 1'
_space_group_name_Hall 'P 1'
loop_
    _symmetry_equiv_pos_as_xyz
    x,y,z
loop_
    _atom_site_label
    _atom_site_type_symbol
    _atom_site_fract_x
    _atom_site_fract_y
    _atom_site_fract_z
    _atom_site_occupancy
    Mc0     Mc   0.58636   0.10808   0.49604   1.000
    Mc1     Mc   0.89428   0.41181   0.00432   1.000
    Mc2     Mc   0.10548   0.58903   0.99397   1.000
    Mc3     Mc   0.58651   0.41207   0.74981   1.000
    Mc4     Mc   0.41347   0.89210   0.50366   1.000
    Mc5     Mc   0.41369   0.58824   0.25027   1.000
