# CIF file generated by openbabel 2.4.90, see http://openbabel.sf.net
data_I
_chemical_name_common ''
_cell_length_a 12.575
_cell_length_b 12.867
_cell_length_c 14.514
_cell_angle_alpha 88.632
_cell_angle_beta 88.664
_cell_angle_gamma 86.105
_space_group_name_H-M_alt 'P 1'
_space_group_name_Hall 'P 1'
loop_
    _symmetry_equiv_pos_as_xyz
    x,y,z
loop_
    _atom_site_label
    _atom_site_type_symbol
    _atom_site_fract_x
    _atom_site_fract_y
    _atom_site_fract_z
    _atom_site_occupancy
    H0      H    0.23190   0.55020   0.11611   1.000
    H1      H    0.28707   0.51282   0.95462   1.000
    H2      H    0.97264   0.63197   0.87289   1.000
    H3      H    0.93105   0.66858   0.03874   1.000
    H4      H    0.59353   0.55912   0.64174   1.000
    H5      H    0.74092   0.42146   0.64075   1.000
    H6      H    0.46101   0.77028   0.38170   1.000
    H7      H    0.49505   0.71626   0.54402   1.000
    H8      H    0.36109   0.01993   0.62445   1.000
    H9      H    0.32902   0.06098   0.45791   1.000
    H10     H    0.43528   0.41108   0.85742   1.000
    H11     H    0.57054   0.26214   0.85919   1.000
    H12     H    0.76754   0.45074   0.88248   1.000
    H13     H    0.71262   0.48751   0.04413   1.000
    H14     H    0.02750   0.36888   0.12505   1.000
    H15     H    0.06867   0.33255   0.95914   1.000
    H16     H    0.40567   0.44047   0.35745   1.000
    H17     H    0.25777   0.57775   0.35756   1.000
    H18     H    0.53848   0.22949   0.61824   1.000
    H19     H    0.50408   0.28376   0.45606   1.000
    H20     H    0.63905   0.98067   0.37498   1.000
    H21     H    0.67135   0.93932   0.54144   1.000
    H22     H    0.56647   0.59038   0.14440   1.000
    H23     H    0.43053   0.73883   0.14181   1.000
    C24     C    0.17622   0.56663   0.06037   1.000
    C25     C    0.20653   0.54488   0.96983   1.000
    C26     C    0.13182   0.56437   0.90023   1.000
    C27     C    0.03154   0.61154   0.92521   1.000
    C28     C    0.00802   0.63204   0.01707   1.000
    C29     C    0.59284   0.49391   0.69086   1.000
    C30     C    0.67511   0.41634   0.69031   1.000
    C31     C    0.44075   0.82397   0.43736   1.000
    C32     C    0.46058   0.79429   0.52836   1.000
    C33     C    0.43624   0.86639   0.59795   1.000
    C34     C    0.38583   0.96328   0.57232   1.000
    C35     C    0.36766   0.98643   0.47999   1.000
    C36     C    0.50233   0.40923   0.80856   1.000
    C37     C    0.57855   0.32593   0.80946   1.000
    C38     C    0.82343   0.43429   0.93807   1.000
    C39     C    0.79323   0.45570   0.02874   1.000
    C40     C    0.86812   0.43631   0.09821   1.000
    C41     C    0.96838   0.38930   0.07290   1.000
    C42     C    0.99173   0.36905   0.98095   1.000
    C43     C    0.40682   0.50598   0.30867   1.000
    C44     C    0.32435   0.58337   0.30885   1.000
    C45     C    0.55894   0.17599   0.56248   1.000
    C46     C    0.53894   0.20583   0.47154   1.000
    C47     C    0.56350   0.13397   0.40179   1.000
    C48     C    0.61420   0.03715   0.42723   1.000
    C49     C    0.63251   0.01384   0.51953   1.000
    C50     C    0.49864   0.59170   0.19244   1.000
    C51     C    0.42222   0.67481   0.19122   1.000
    C52     C    0.66778   0.32970   0.75001   1.000
    C53     C    0.33215   0.67036   0.24960   1.000
    N54     N    0.07803   0.60732   0.08464   1.000
    N55     N    0.39744   0.91919   0.41254   1.000
    N56     N    0.92157   0.39373   0.91348   1.000
    N57     N    0.60259   0.08084   0.58713   1.000
    N58     N    0.50817   0.49179   0.74978   1.000
    N59     N    0.49227   0.50875   0.25068   1.000
loop_
    _geom_bond_atom_site_label_1
    _geom_bond_atom_site_label_2
    _geom_bond_distance
    _geom_bond_site_symmetry_2
    _ccdc_geom_bond_type
    C28    H3        1.08995  1_455   S
    C28    N54       1.35107      .   S
    C28    C27       1.38644  1_554   S
    C39    H13       1.08737      .   S
    C39    C40       1.40224      .   S
    C39    C38       1.38970  1_554   S
    C24    N54       1.35040      .   S
    C24    H0        1.08983      .   S
    C24    C25       1.38919  1_554   S
    C41    C40       1.40572      .   S
    C41    H14       1.08843  1_655   S
    C41    C42       1.38677  1_554   S
    H23    C51       1.08809      .   S
    H22    C50       1.08849      .   S
    C51    C50       1.38831      .   S
    C51    C53       1.40213      .   S
    C50    N59       1.35125      .   S
    C53    C44       1.40251      .   S
    N59    C43       1.35127      .   S
    C43    C44       1.38807      .   S
    C43    H16       1.08835      .   S
    C44    H17       1.08825      .   S
    H20    C48       1.08872  1_565   S
    H6     C31       1.08986      .   S
    C47    C48       1.40566      .   S
    C47    C46       1.40237      .   S
    N55    C31       1.35093      .   S
    N55    C35       1.35148      .   S
    C48    C49       1.38683      .   S
    C31    C32       1.38955      .   S
    H19    C46       1.08731      .   S
    H9     C35       1.09003  1_545   S
    C46    C45       1.38961      .   S
    C35    C34       1.38664      .   S
    C49    H21       1.09003  1_545   S
    C49    N57       1.35151      .   S
    C32    H7        1.08728      .   S
    C32    C33       1.40229      .   S
    C45    N57       1.35100      .   S
    C45    H18       1.08986      .   S
    C34    C33       1.40571      .   S
    C34    H8        1.08868  1_565   S
    H5     C30       1.08810      .   S
    H4     C29       1.08835      .   S
    C30    C29       1.38788      .   S
    C30    C52       1.40225      .   S
    C29    N58       1.35128      .   S
    N58    C36       1.35138      .   S
    C52    C37       1.40225      .   S
    C36    C37       1.38850      .   S
    C36    H10       1.08841      .   S
    C37    H11       1.08829      .   S
    H2     C27       1.08840  1_655   S
    H12    C38       1.08982      .   S
    C26    C27       1.40548      .   S
    C26    C25       1.40207      .   S
    N56    C38       1.35051      .   S
    N56    C42       1.35112      .   S
    H1     C25       1.08724      .   S
    H15    C42       1.08999  1_455   S
