# CIF file generated by openbabel 2.4.90, see http://openbabel.sf.net
data_I
_chemical_name_common ''
_cell_length_a 12.575
_cell_length_b 12.867
_cell_length_c 14.514
_cell_angle_alpha 88.632
_cell_angle_beta 88.664
_cell_angle_gamma 86.105
_space_group_name_H-M_alt 'P 1'
_space_group_name_Hall 'P 1'
loop_
    _symmetry_equiv_pos_as_xyz
    x,y,z
loop_
    _atom_site_label
    _atom_site_type_symbol
    _atom_site_fract_x
    _atom_site_fract_y
    _atom_site_fract_z
    _atom_site_occupancy
    C0      C    0.15241   0.53489   0.80412   1.000
    C1      C    0.12203   0.47798   0.66787   1.000
    C2      C    0.21921   0.52331   0.66456   1.000
    C3      C    0.91019   0.16605   0.75473   1.000
    C4      C    0.46485   0.84717   0.69465   1.000
    C5      C    0.52051   0.87953   0.83125   1.000
    C6      C    0.47772   0.78280   0.83446   1.000
    C7      C    0.83498   0.09246   0.74636   1.000
    C8      C    0.84787   0.46528   0.19457   1.000
    C9      C    0.87956   0.52083   0.33111   1.000
    C10     C    0.78248   0.47526   0.33471   1.000
    C11     C    0.08967   0.83389   0.24503   1.000
    C12     C    0.53460   0.15341   0.30518   1.000
    C13     C    0.47759   0.12197   0.16883   1.000
    C14     C    0.52047   0.21865   0.16572   1.000
    C15     C    0.16481   0.90748   0.25391   1.000
    C16     C    0.75232   0.24585   0.75038   1.000
    C17     C    0.24758   0.75417   0.24893   1.000
    N18     N    0.08010   0.48570   0.75578   1.000
    N19     N    0.23860   0.55807   0.75094   1.000
    N20     N    0.85734   0.26242   0.75587   1.000
    N21     N    0.51208   0.91987   0.74318   1.000
    N22     N    0.44374   0.76213   0.74794   1.000
    N23     N    0.73558   0.14352   0.74496   1.000
    N24     N    0.92055   0.51416   0.24282   1.000
    N25     N    0.76218   0.44151   0.24816   1.000
    N26     N    0.14259   0.73759   0.24316   1.000
    N27     N    0.48701   0.08098   0.25662   1.000
    N28     N    0.55528   0.23872   0.25210   1.000
    N29     N    0.26426   0.85647   0.25494   1.000
loop_
    _geom_bond_atom_site_label_1
    _geom_bond_atom_site_label_2
    _geom_bond_distance
    _geom_bond_site_symmetry_2
    _ccdc_geom_bond_type
    C14    C13       1.38836      .   S
    C14    N28       1.37344      .   S
    C13    N27       1.37197      .   S
    C8     N24       1.36027      .   S
    C8     N25       1.36153      .   S
    N24    C9        1.37252      .   S
    N26    C11       1.36655      .   S
    N26    C17       1.35643      .   S
    C11    C15       1.39246      .   S
    N25    C10       1.37392      .   S
    C17    N29       1.35209      .   S
    N28    C12       1.36198      .   S
    C15    N29       1.37251      .   S
    N27    C12       1.36021      .   S
    C9     C10       1.38908      .   S
    C2     C1        1.38881      .   S
    C2     N19       1.37370      .   S
    C1     N18       1.37228      .   S
    C4     N21       1.36037      .   S
    C4     N22       1.36211      .   S
    N21    C5        1.37181      .   S
    N23    C7        1.37237      .   S
    N23    C16       1.35181      .   S
    C7     C3        1.39228      .   S
    N22    C6        1.37353      .   S
    C16    N20       1.35640      .   S
    N19    C0        1.36130      .   S
    C3     N20       1.36671      .   S
    N18    C0        1.35966      .   S
    C5     C6        1.38846      .   S
