# CIF file generated by openbabel 2.4.90, see http://openbabel.sf.net
data_I
_chemical_name_common ''
_cell_length_a 12.575
_cell_length_b 12.867
_cell_length_c 14.514
_cell_angle_alpha 88.632
_cell_angle_beta 88.664
_cell_angle_gamma 86.105
_space_group_name_H-M_alt 'P 1'
_space_group_name_Hall 'P 1'
loop_
    _symmetry_equiv_pos_as_xyz
    x,y,z
loop_
    _atom_site_label
    _atom_site_type_symbol
    _atom_site_fract_x
    _atom_site_fract_y
    _atom_site_fract_z
    _atom_site_occupancy
    Lv0     Lv   0.51499   0.16274   0.22969   1.000
    Lv1     Lv   0.83853   0.48341   0.27028   1.000
    Lv2     Lv   0.16247   0.51599   0.72866   1.000
    Lv3     Lv   0.81809   0.18206   0.75046   1.000
    Lv4     Lv   0.48378   0.83830   0.77029   1.000
    Lv5     Lv   0.18178   0.81792   0.24920   1.000
