# CIF file generated by openbabel 2.4.90, see http://openbabel.sf.net
data_I
_chemical_name_common ''
_cell_length_a 12.575
_cell_length_b 12.867
_cell_length_c 14.514
_cell_angle_alpha 88.632
_cell_angle_beta 88.664
_cell_angle_gamma 86.105
_space_group_name_H-M_alt 'P 1'
_space_group_name_Hall 'P 1'
loop_
    _symmetry_equiv_pos_as_xyz
    x,y,z
loop_
    _atom_site_label
    _atom_site_type_symbol
    _atom_site_fract_x
    _atom_site_fract_y
    _atom_site_fract_z
    _atom_site_occupancy
    H0      H    0.23190   0.55020   0.11611   1.000
    H1      H    0.28707   0.51282   0.95462   1.000
    H2      H    0.97264   0.63197   0.87289   1.000
    H3      H    0.93105   0.66858   0.03874   1.000
    H4      H    0.59353   0.55912   0.64174   1.000
    H5      H    0.74092   0.42146   0.64075   1.000
    H6      H    0.46101   0.77028   0.38170   1.000
    H7      H    0.49505   0.71626   0.54402   1.000
    H8      H    0.36109   0.01993   0.62445   1.000
    H9      H    0.32902   0.06098   0.45791   1.000
    H10     H    0.43528   0.41108   0.85742   1.000
    H11     H    0.57054   0.26214   0.85919   1.000
    H12     H    0.76754   0.45074   0.88248   1.000
    H13     H    0.71262   0.48751   0.04413   1.000
    H14     H    0.02750   0.36888   0.12505   1.000
    H15     H    0.06867   0.33255   0.95914   1.000
    H16     H    0.40567   0.44047   0.35745   1.000
    H17     H    0.25777   0.57775   0.35756   1.000
    H18     H    0.53848   0.22949   0.61824   1.000
    H19     H    0.50408   0.28376   0.45606   1.000
    H20     H    0.63905   0.98067   0.37498   1.000
    H21     H    0.67135   0.93932   0.54144   1.000
    H22     H    0.56647   0.59038   0.14440   1.000
    H23     H    0.43053   0.73883   0.14181   1.000
    C24     C    0.15241   0.53489   0.80412   1.000
    C25     C    0.12203   0.47798   0.66787   1.000
    C26     C    0.21921   0.52331   0.66456   1.000
    C27     C    0.17622   0.56663   0.06037   1.000
    C28     C    0.20653   0.54488   0.96983   1.000
    C29     C    0.13182   0.56437   0.90023   1.000
    C30     C    0.03154   0.61154   0.92521   1.000
    C31     C    0.00802   0.63204   0.01707   1.000
    C32     C    0.91019   0.16605   0.75473   1.000
    C33     C    0.59284   0.49391   0.69086   1.000
    C34     C    0.67511   0.41634   0.69031   1.000
    C35     C    0.46485   0.84717   0.69465   1.000
    C36     C    0.52051   0.87953   0.83125   1.000
    C37     C    0.47772   0.78280   0.83446   1.000
    C38     C    0.44075   0.82397   0.43736   1.000
    C39     C    0.46058   0.79429   0.52836   1.000
    C40     C    0.43624   0.86639   0.59795   1.000
    C41     C    0.38583   0.96328   0.57232   1.000
    C42     C    0.36766   0.98643   0.47999   1.000
    C43     C    0.83498   0.09246   0.74636   1.000
    C44     C    0.50233   0.40923   0.80856   1.000
    C45     C    0.57855   0.32593   0.80946   1.000
    C46     C    0.84787   0.46528   0.19457   1.000
    C47     C    0.87956   0.52083   0.33111   1.000
    C48     C    0.78248   0.47526   0.33471   1.000
    C49     C    0.82343   0.43429   0.93807   1.000
    C50     C    0.79323   0.45570   0.02874   1.000
    C51     C    0.86812   0.43631   0.09821   1.000
    C52     C    0.96838   0.38930   0.07290   1.000
    C53     C    0.99173   0.36905   0.98095   1.000
    C54     C    0.08967   0.83389   0.24503   1.000
    C55     C    0.40682   0.50598   0.30867   1.000
    C56     C    0.32435   0.58337   0.30885   1.000
    C57     C    0.53460   0.15341   0.30518   1.000
    C58     C    0.47759   0.12197   0.16883   1.000
    C59     C    0.52047   0.21865   0.16572   1.000
    C60     C    0.55894   0.17599   0.56248   1.000
    C61     C    0.53894   0.20583   0.47154   1.000
    C62     C    0.56350   0.13397   0.40179   1.000
    C63     C    0.61420   0.03715   0.42723   1.000
    C64     C    0.63251   0.01384   0.51953   1.000
    C65     C    0.16481   0.90748   0.25391   1.000
    C66     C    0.49864   0.59170   0.19244   1.000
    C67     C    0.42222   0.67481   0.19122   1.000
    C68     C    0.75232   0.24585   0.75038   1.000
    C69     C    0.66778   0.32970   0.75001   1.000
    C70     C    0.24758   0.75417   0.24893   1.000
    C71     C    0.33215   0.67036   0.24960   1.000
    N72     N    0.08010   0.48570   0.75578   1.000
    N73     N    0.23860   0.55807   0.75094   1.000
    N74     N    0.07803   0.60732   0.08464   1.000
    N75     N    0.85734   0.26242   0.75587   1.000
    N76     N    0.51208   0.91987   0.74318   1.000
    N77     N    0.44374   0.76213   0.74794   1.000
    N78     N    0.39744   0.91919   0.41254   1.000
    N79     N    0.73558   0.14352   0.74496   1.000
    N80     N    0.92055   0.51416   0.24282   1.000
    N81     N    0.76218   0.44151   0.24816   1.000
    N82     N    0.92157   0.39373   0.91348   1.000
    N83     N    0.14259   0.73759   0.24316   1.000
    N84     N    0.48701   0.08098   0.25662   1.000
    N85     N    0.55528   0.23872   0.25210   1.000
    N86     N    0.60259   0.08084   0.58713   1.000
    N87     N    0.26426   0.85647   0.25494   1.000
    N88     N    0.50817   0.49179   0.74978   1.000
    N89     N    0.49227   0.50875   0.25068   1.000
loop_
    _geom_bond_atom_site_label_1
    _geom_bond_atom_site_label_2
    _geom_bond_distance
    _geom_bond_site_symmetry_2
    _ccdc_geom_bond_type
    C31    H3        1.08995  1_455   S
    C31    N74       1.35107      .   S
    C31    C30       1.38644  1_554   S
    C50    H13       1.08737      .   S
    C50    C51       1.40224      .   S
    C50    C49       1.38970  1_554   S
    C27    N74       1.35040      .   S
    C27    H0        1.08983      .   S
    C27    C28       1.38919  1_554   S
    C52    C51       1.40572      .   S
    C52    H14       1.08843  1_655   S
    C52    C53       1.38677  1_554   S
    C51    C46       1.46803      .   S
    H23    C67       1.08809      .   S
    H22    C66       1.08849      .   S
    C59    C58       1.38836      .   S
    C59    N85       1.37344      .   S
    C58    N84       1.37197      .   S
    C67    C66       1.38831      .   S
    C67    C71       1.40213      .   S
    C66    N89       1.35125      .   S
    C46    N80       1.36027      .   S
    C46    N81       1.36153      .   S
    N80    C47       1.37252      .   S
    N83    C54       1.36655      .   S
    N83    C70       1.35643      .   S
    C54    C65       1.39246      .   S
    N81    C48       1.37392      .   S
    C70    C71       1.46223      .   S
    C70    N87       1.35209      .   S
    C71    C56       1.40251      .   S
    N89    C55       1.35127      .   S
    N85    C57       1.36198      .   S
    C65    N87       1.37251      .   S
    N84    C57       1.36021      .   S
    C57    C62       1.46817      .   S
    C55    C56       1.38807      .   S
    C55    H16       1.08835      .   S
    C56    H17       1.08825      .   S
    C47    C48       1.38908      .   S
    H20    C63       1.08872  1_565   S
    H6     C38       1.08986      .   S
    C62    C63       1.40566      .   S
    C62    C61       1.40237      .   S
    N78    C38       1.35093      .   S
    N78    C42       1.35148      .   S
    C63    C64       1.38683      .   S
    C38    C39       1.38955      .   S
    H19    C61       1.08731      .   S
    H9     C42       1.09003  1_545   S
    C61    C60       1.38961      .   S
    C42    C41       1.38664      .   S
    C64    H21       1.09003  1_545   S
    C64    N86       1.35151      .   S
    C39    H7        1.08728      .   S
    C39    C40       1.40229      .   S
    C60    N86       1.35100      .   S
    C60    H18       1.08986      .   S
    C41    C40       1.40571      .   S
    C41    H8        1.08868  1_565   S
    C40    C35       1.46800      .   S
    H5     C34       1.08810      .   S
    H4     C33       1.08835      .   S
    C26    C25       1.38881      .   S
    C26    N73       1.37370      .   S
    C25    N72       1.37228      .   S
    C34    C33       1.38788      .   S
    C34    C69       1.40225      .   S
    C33    N88       1.35128      .   S
    C35    N76       1.36037      .   S
    C35    N77       1.36211      .   S
    N76    C36       1.37181      .   S
    N79    C43       1.37237      .   S
    N79    C68       1.35181      .   S
    C43    C32       1.39228      .   S
    N77    C37       1.37353      .   S
    N88    C44       1.35138      .   S
    C69    C68       1.46232      .   S
    C69    C45       1.40225      .   S
    C68    N75       1.35640      .   S
    N73    C24       1.36130      .   S
    C32    N75       1.36671      .   S
    N72    C24       1.35966      .   S
    C24    C29       1.46702      .   S
    C44    C45       1.38850      .   S
    C44    H10       1.08841      .   S
    C45    H11       1.08829      .   S
    C36    C37       1.38846      .   S
    H2     C30       1.08840  1_655   S
    H12    C49       1.08982      .   S
    C29    C30       1.40548      .   S
    C29    C28       1.40207      .   S
    N82    C49       1.35051      .   S
    N82    C53       1.35112      .   S
    H1     C28       1.08724      .   S
    H15    C53       1.08999  1_455   S
