# CIF file generated by openbabel 2.4.90, see http://openbabel.sf.net
data_I
_chemical_name_common ''
_cell_length_a 12.575
_cell_length_b 12.867
_cell_length_c 14.514
_cell_angle_alpha 88.632
_cell_angle_beta 88.664
_cell_angle_gamma 86.105
_space_group_name_H-M_alt 'P 1'
_space_group_name_Hall 'P 1'
loop_
    _symmetry_equiv_pos_as_xyz
    x,y,z
loop_
    _atom_site_label
    _atom_site_type_symbol
    _atom_site_fract_x
    _atom_site_fract_y
    _atom_site_fract_z
    _atom_site_occupancy
    Zn0     Zn   0.62567   0.03152   0.72606   1.000
    Zn1     Zn   0.02767   0.63127   0.22307   1.000
    Zn2     Zn   0.37426   0.96851   0.27379   1.000
    Zn3     Zn   0.38885   0.61374   0.74987   1.000
    Zn4     Zn   0.61134   0.38649   0.25015   1.000
    H5      H    0.17629   0.45389   0.50999   1.000
    H6      H    0.54451   0.82800   0.98969   1.000
    H7      H    0.82789   0.54156   0.49003   1.000
    H8      H    0.45043   0.17540   0.01119   1.000
    Zn9     Zn   0.97219   0.36890   0.77442   1.000
    H10     H    0.00222   0.00000   0.74889   1.000
    H11     H    0.00000   0.01046   0.25347   1.000
    C12     C    0.06305   0.42437   0.59921   1.000
    C13     C    0.29565   0.53943   0.58715   1.000
    C14     C    0.02697   0.15408   0.76612   1.000
    C15     C    0.57292   0.93901   0.90011   1.000
    C16     C    0.46379   0.70783   0.91208   1.000
    C17     C    0.84647   0.00000   0.73415   1.000
    C18     C    0.93928   0.57361   0.39989   1.000
    C19     C    0.70671   0.45849   0.41252   1.000
    C20     C    0.00000   0.84588   0.23397   1.000
    C21     C    0.42481   0.06279   0.10001   1.000
    C22     C    0.53386   0.29412   0.08836   1.000
    C23     C    0.15326   0.01996   0.26720   1.000
    O24     O    0.97784   0.38585   0.62408   1.000
    O25     O    0.10204   0.41763   0.51517   1.000
    O26     O    0.37589   0.59044   0.60478   1.000
    O27     O    0.27671   0.50174   0.50933   1.000
    O28     O    0.07411   0.23699   0.78129   1.000
    O29     O    0.07331   0.06322   0.76159   1.000
    O30     O    0.61091   0.02307   0.87495   1.000
    O31     O    0.57929   0.90218   0.98442   1.000
    O32     O    0.41627   0.62649   0.89452   1.000
    O33     O    0.50014   0.72887   0.99022   1.000
    O34     O    0.76416   0.93194   0.71874   1.000
    O35     O    0.94093   0.93262   0.73802   1.000
    O36     O    0.02358   0.61341   0.37464   1.000
    O37     O    0.90189   0.57815   0.48458   1.000
    O38     O    0.62534   0.40904   0.39489   1.000
    O39     O    0.72729   0.49408   0.49078   1.000
    O40     O    0.92575   0.76308   0.21821   1.000
    O41     O    0.92645   0.93660   0.23938   1.000
    O42     O    0.38846   0.97783   0.12477   1.000
    O43     O    0.41622   0.10100   0.01623   1.000
    O44     O    0.58349   0.37425   0.10560   1.000
    O45     O    0.49528   0.27459   0.01073   1.000
    O46     O    0.23571   0.06788   0.28194   1.000
    O47     O    0.05860   0.06702   0.26511   1.000
loop_
    _geom_bond_atom_site_label_1
    _geom_bond_atom_site_label_2
    _geom_bond_distance
    _geom_bond_site_symmetry_2
    _ccdc_geom_bond_type
    O45    C22       1.27425      .   S
    H8     O43       1.07613      .   S
    O43    C21       1.30481      .   S
    C22    O44       1.27359      .   S
    C21    O42       1.25477  1_545   S
    O44    Zn4       2.14634      .   S
    O42    Zn2       2.16710      .   S
    O40    Zn1       2.05602  1_655   S
    O40    C20       1.48855  1_655   S
    Zn1    O36       2.20612      .   S
    C20    O41       1.44163  1_455   S
    Zn4    O38       2.14050      .   S
    H11    O47       1.08884      .   S
    O47    C23       1.29909      .   S
    C23    O46       1.26659      .   S
    Zn2    O46       2.09280  1_565   S
    O36    C18       1.25186  1_455   S
    O38    C19       1.27491      .   S
    C18    O37       1.30698      .   S
    C19    O39       1.27343      .   S
    O37    H7        1.07140      .   S
    O27    C13       1.27365      .   S
    H5     O25       1.07212      .   S
    O25    C12       1.30658      .   S
    C13    O26       1.27462      .   S
    C12    O24       1.25282  1_455   S
    O26    Zn3       2.14565      .   S
    O24    Zn9       2.18770      .   S
    O34    Zn0       2.09298  1_565   S
    O34    C17       1.42532  1_565   S
    Zn0    O30       2.16552      .   S
    C17    O35       1.42369  1_545   S
    O35    H10       1.21391  1_665   S
    Zn3    O32       2.14738      .   S
    O29    C14       1.27277      .   S
    C14    O28       1.28114      .   S
    Zn9    O28       2.05817  1_655   S
    O30    C15       1.25475  1_545   S
    O32    C16       1.27368      .   S
    C15    O31       1.30396      .   S
    C16    O33       1.27437      .   S
    O31    H6        1.07698      .   S
