# CIF file generated by openbabel 2.4.90, see http://openbabel.sf.net
data_I
_chemical_name_common ''
_cell_length_a 12.575
_cell_length_b 12.867
_cell_length_c 14.514
_cell_angle_alpha 88.632
_cell_angle_beta 88.664
_cell_angle_gamma 86.105
_space_group_name_H-M_alt 'P 1'
_space_group_name_Hall 'P 1'
loop_
    _symmetry_equiv_pos_as_xyz
    x,y,z
loop_
    _atom_site_label
    _atom_site_type_symbol
    _atom_site_fract_x
    _atom_site_fract_y
    _atom_site_fract_z
    _atom_site_occupancy
    N0      N    0.51499   0.16274   0.22969   1.000
    N1      N    0.83853   0.48341   0.27028   1.000
    N2      N    0.16247   0.51599   0.72866   1.000
    N3      N    0.81809   0.18206   0.75046   1.000
    N4      N    0.48378   0.83830   0.77029   1.000
    N5      N    0.18178   0.81792   0.24920   1.000
    Zr6     Zr   0.05823   0.31312   0.66649   1.000
    O7      O    0.98940   0.35484   0.79531   1.000
    Zr8     Zr   0.38819   0.61551   0.74971   1.000
    O9      O    0.45285   0.54896   0.74976   1.000
    Zr10    Zr   0.94657   0.68545   0.33297   1.000
    O11     O    0.01287   0.64480   0.20344   1.000
    Zr12    Zr   0.27797   0.05009   0.17708   1.000
    O13     O    0.33882   0.98403   0.30024   1.000
    Zr14    Zr   0.72079   0.95426   0.82389   1.000
    O15     O    0.66052   0.01820   0.70010   1.000
    Zr16    Zr   0.61190   0.38444   0.25043   1.000
    O17     O    0.54732   0.45118   0.25039   1.000
    O18     O    0.08457   0.39536   0.69024   1.000
    O19     O    0.96905   0.26154   0.71155   1.000
    O20     O    0.30610   0.57641   0.72905   1.000
    O21     O    0.42592   0.69648   0.77020   1.000
    O22     O    0.57351   0.30403   0.22991   1.000
    O23     O    0.69450   0.42318   0.27063   1.000
    O24     O    0.62079   0.92233   0.80456   1.000
    O25     O    0.75508   0.03936   0.78403   1.000
    O26     O    0.24422   0.96405   0.21645   1.000
    O27     O    0.37796   0.08037   0.19591   1.000
    O28     O    0.03497   0.73774   0.28786   1.000
    O29     O    0.91836   0.60357   0.30886   1.000
loop_
    _geom_bond_atom_site_label_1
    _geom_bond_atom_site_label_2
    _geom_bond_distance
    _geom_bond_site_symmetry_2
    _ccdc_geom_bond_type
    Zr6    O7        2.10774  1_455   S
    N1     O7        7.30527  1_554   S
    Zr8    O9        1.14004      .   S
    N3     O9        6.35890      .   S
    Zr10   O11       2.10180  1_655   S
    N2     O11       7.30002  1_556   S
    Zr12   O13       2.09914  1_545   S
    N4     O13       7.27239      .   S
    Zr14   O15       2.09460  1_565   S
    N0     O15       7.27589      .   S
    Zr16   O17       1.14116      .   S
    N5     O17       6.36003      .   S
    Zr6    O18       1.19118      .   S
    N2     O18       1.98819      .   S
    Zr6    O19       1.47373  1_455   S
    N3     O19       2.27042      .   S
    Zr8    O20       1.22495      .   S
    N2     O20       2.01453      .   S
    Zr8    O21       1.21976      .   S
    N4     O21       2.00988      .   S
    Zr16   O22       1.21720      .   S
    N0     O22       2.00708      .   S
    Zr16   O23       1.22674      .   S
    N1     O23       2.01764      .   S
    Zr14   O24       1.38603      .   S
    N4     O24       2.16869      .   S
    Zr14   O25       1.31989  1_565   S
    N3     O25       2.09122      .   S
    Zr12   O26       1.32466  1_545   S
    N5     O26       2.12563      .   S
    Zr12   O27       1.37666      .   S
    N0     O27       2.15522      .   S
    Zr10   O28       1.47109  1_655   S
    N5     O28       2.22938      .   S
    Zr10   O29       1.19683      .   S
    N1     O29       1.99751      .   S
