# CIF file generated by openbabel 2.4.90, see http://openbabel.sf.net
data_I
_chemical_name_common ''
_cell_length_a 12.575
_cell_length_b 12.867
_cell_length_c 14.514
_cell_angle_alpha 88.632
_cell_angle_beta 88.664
_cell_angle_gamma 86.105
_space_group_name_H-M_alt 'P 1'
_space_group_name_Hall 'P 1'
loop_
    _symmetry_equiv_pos_as_xyz
    x,y,z
loop_
    _atom_site_label
    _atom_site_type_symbol
    _atom_site_fract_x
    _atom_site_fract_y
    _atom_site_fract_z
    _atom_site_occupancy
    N0      N    0.51499   0.16274   0.22969   1.000
    N1      N    0.83853   0.48341   0.27028   1.000
    N2      N    0.16247   0.51599   0.72866   1.000
    N3      N    0.81809   0.18206   0.75046   1.000
    N4      N    0.48378   0.83830   0.77029   1.000
    N5      N    0.18178   0.81792   0.24920   1.000
    Zr6     Zr   0.05823   0.31312   0.66649   1.000
    O7      O    0.97578   0.24209   0.71096   1.000
    O8      O    0.09286   0.39835   0.67379   1.000
    O9      O    0.98940   0.35484   0.79531   1.000
    O10     O    0.96233   0.28099   0.71214   1.000
    O11     O    0.07627   0.39238   0.70668   1.000
    Zr12    Zr   0.38819   0.61551   0.74971   1.000
    O13     O    0.29907   0.56959   0.71348   1.000
    O14     O    0.31314   0.58323   0.74462   1.000
    O15     O    0.45285   0.54896   0.74976   1.000
    O16     O    0.41911   0.68931   0.75465   1.000
    O17     O    0.43273   0.70366   0.78574   1.000
    Zr18    Zr   0.94657   0.68545   0.33297   1.000
    O19     O    0.91027   0.60038   0.32543   1.000
    O20     O    0.02994   0.75717   0.28866   1.000
    O21     O    0.04001   0.71831   0.28706   1.000
    O22     O    0.01287   0.64480   0.20344   1.000
    O23     O    0.92644   0.60675   0.29229   1.000
    Zr24    Zr   0.27797   0.05009   0.17708   1.000
    O25     O    0.22419   0.97046   0.21598   1.000
    O26     O    0.38053   0.08883   0.17957   1.000
    O27     O    0.26425   0.95765   0.21693   1.000
    O28     O    0.33882   0.98403   0.30024   1.000
    O29     O    0.37539   0.07192   0.21226   1.000
    Zr30    Zr   0.72079   0.95426   0.82389   1.000
    O31     O    0.61802   0.91402   0.82094   1.000
    O32     O    0.77510   0.03420   0.78463   1.000
    O33     O    0.62356   0.93063   0.78817   1.000
    O34     O    0.73507   0.04453   0.78344   1.000
    O35     O    0.66052   0.01820   0.70010   1.000
    Zr36    Zr   0.61190   0.38444   0.25043   1.000
    O37     O    0.70173   0.42979   0.28619   1.000
    O38     O    0.54732   0.45118   0.25039   1.000
    O39     O    0.68727   0.41657   0.25508   1.000
    O40     O    0.58052   0.31105   0.24542   1.000
    O41     O    0.56649   0.29700   0.21440   1.000
loop_
    _geom_bond_atom_site_label_1
    _geom_bond_atom_site_label_2
    _geom_bond_distance
    _geom_bond_site_symmetry_2
    _ccdc_geom_bond_type
    Zr6    O7        1.54796  1_455   S
    N3     O7        2.23414      .   S
    Zr6    O8        1.21503      .   S
    N2     O8        1.99035      .   S
    Zr6    O9        2.10774  1_455   S
    N1     O9        7.30527  1_554   S
    Zr6    O10       1.44281  1_455   S
    N3     O10       2.33501      .   S
    Zr6    O11       1.22395      .   S
    N2     O11       2.02013      .   S
    Zr12   O13       1.41901      .   S
    N2     O13       1.90023      .   S
    Zr12   O14       1.06135      .   S
    N2     O14       2.15519      .   S
    Zr12   O15       1.14004      .   S
    N3     O15       6.35890      .   S
    Zr12   O16       1.05498      .   S
    N4     O16       2.15150      .   S
    Zr12   O17       1.41494      .   S
    N4     O17       1.89465      .   S
    Zr18   O19       1.22240      .   S
    N1     O19       1.99889      .   S
    Zr18   O20       1.56086  1_655   S
    N5     O20       2.17149      .   S
    Zr18   O21       1.42167  1_655   S
    N5     O21       2.31390      .   S
    Zr18   O22       2.10180  1_655   S
    N2     O22       7.30002  1_556   S
    Zr18   O23       1.22808      .   S
    N1     O23       2.03032      .   S
    Zr24   O25       1.36925  1_545   S
    N5     O25       2.11046      .   S
    Zr24   O26       1.41541      .   S
    N0     O26       2.14508      .   S
    Zr24   O27       1.33026  1_545   S
    N5     O27       2.17200      .   S
    Zr24   O28       2.09914  1_545   S
    N4     O28       7.27239      .   S
    Zr24   O29       1.38678      .   S
    N0     O29       2.19653      .   S
    Zr30   O31       1.42639      .   S
    N4     O31       2.15746      .   S
    Zr30   O32       1.37790  1_565   S
    N3     O32       2.05909      .   S
    Zr30   O33       1.39417      .   S
    N4     O33       2.21087      .   S
    Zr30   O34       1.31029  1_565   S
    N3     O34       2.15356      .   S
    Zr30   O35       2.09460  1_565   S
    N0     O35       7.27589      .   S
    Zr36   O37       1.42029      .   S
    N1     O37       1.90359      .   S
    Zr36   O38       1.14116      .   S
    N5     O38       6.36003      .   S
    Zr36   O39       1.06366      .   S
    N1     O39       2.15798      .   S
    Zr36   O40       1.05248      .   S
    N0     O40       2.14853      .   S
    Zr36   O41       1.41233      .   S
    N0     O41       1.89203      .   S
