# CIF file generated by openbabel 2.4.90, see http://openbabel.sf.net
data_I
_chemical_name_common ''
_cell_length_a 15.976
_cell_length_b 19.736
_cell_length_c 13.545
_cell_angle_alpha 109.661
_cell_angle_beta 105.44
_cell_angle_gamma 94.817
_space_group_name_H-M_alt 'P 1'
_space_group_name_Hall 'P 1'
loop_
    _symmetry_equiv_pos_as_xyz
    x,y,z
loop_
    _atom_site_label
    _atom_site_type_symbol
    _atom_site_fract_x
    _atom_site_fract_y
    _atom_site_fract_z
    _atom_site_occupancy
    Lv0     Lv   0.50000   0.50000   0.99994   1.000
    Lv1     Lv   0.00005   0.25009   0.99985   1.000
    Lv2     Lv   0.49996   0.74991   0.00017   1.000
    Lv3     Lv   0.99996   0.74991   0.00016   1.000
    Lv4     Lv   0.50004   0.25008   0.99984   1.000
    Lv5     Lv   1.00000   0.99899   0.99996   1.000
    Lv6     Lv   0.50000   0.99899   0.00002   1.000
    Lv7     Lv   1.00000   0.50000   0.00001   1.000
