# CIF file generated by openbabel 2.4.90, see http://openbabel.sf.net
data_I
_chemical_name_common ''
_cell_length_a 15.976
_cell_length_b 19.736
_cell_length_c 13.545
_cell_angle_alpha 109.661
_cell_angle_beta 105.44
_cell_angle_gamma 94.817
_space_group_name_H-M_alt 'P 1'
_space_group_name_Hall 'P 1'
loop_
    _symmetry_equiv_pos_as_xyz
    x,y,z
loop_
    _atom_site_label
    _atom_site_type_symbol
    _atom_site_fract_x
    _atom_site_fract_y
    _atom_site_fract_z
    _atom_site_occupancy
    H0      H    0.42215   0.02695   0.83630   1.000
    H1      H    0.42206   0.52664   0.83604   1.000
    H2      H    0.92214   0.02695   0.83630   1.000
    H3      H    0.92205   0.52664   0.83600   1.000
    H4      H    0.16013   0.99355   0.03954   1.000
    H5      H    0.16017   0.49371   0.03969   1.000
    H6      H    0.66012   0.99355   0.03955   1.000
    H7      H    0.66017   0.49371   0.03900   1.000
    H8      H    0.49575   0.14121   0.83718   1.000
    H9      H    0.49566   0.64104   0.83749   1.000
    H10     H    0.99574   0.14121   0.83718   1.000
    H11     H    0.99566   0.64104   0.83749   1.000
    H12     H    0.35970   0.27649   0.03879   1.000
    H13     H    0.35961   0.77631   0.03910   1.000
    H14     H    0.85969   0.27649   0.03879   1.000
    H15     H    0.85960   0.77631   0.03910   1.000
    H16     H    0.07794   0.47335   0.16399   1.000
    H17     H    0.07785   0.97304   0.16373   1.000
    H18     H    0.57793   0.47335   0.16399   1.000
    H19     H    0.57784   0.97304   0.16373   1.000
    H20     H    0.33983   0.50628   0.96034   1.000
    H21     H    0.33987   0.00000   0.96049   1.000
    H22     H    0.83982   0.50628   0.96034   1.000
    H23     H    0.83986   0.00000   0.96000   1.000
    H24     H    0.00435   0.35895   0.16253   1.000
    H25     H    0.00426   0.85878   0.16284   1.000
    H26     H    0.50433   0.35895   0.16252   1.000
    H27     H    0.50425   0.85878   0.16284   1.000
    H28     H    0.14040   0.22368   0.96091   1.000
    H29     H    0.14031   0.72350   0.96123   1.000
    H30     H    0.64039   0.22368   0.96091   1.000
    H31     H    0.64030   0.72350   0.96123   1.000
    C32     C    0.04575   0.01049   0.92971   1.000
    C33     C    0.04572   0.51041   0.92965   1.000
    C34     C    0.54574   0.01050   0.92972   1.000
    C35     C    0.54571   0.51041   0.92965   1.000
    C36     C    0.45551   0.01396   0.90714   1.000
    C37     C    0.45546   0.51377   0.90690   1.000
    C38     C    0.95550   0.01396   0.90710   1.000
    C39     C    0.95545   0.51378   0.90699   1.000
    C40     C    0.09016   0.99638   0.02314   1.000
    C41     C    0.09018   0.49648   0.02320   1.000
    C42     C    0.59015   0.99639   0.02314   1.000
    C43     C    0.59017   0.49648   0.02322   1.000
    C44     C    0.49794   0.18960   0.90758   1.000
    C45     C    0.49785   0.68942   0.90792   1.000
    C46     C    0.99793   0.18961   0.90758   1.000
    C47     C    0.99785   0.68942   0.90792   1.000
    C48     C    0.42147   0.26538   0.02263   1.000
    C49     C    0.42138   0.76520   0.02296   1.000
    C50     C    0.92146   0.26538   0.02263   1.000
    C51     C    0.92137   0.76520   0.02296   1.000
    C52     C    0.41901   0.20450   0.92980   1.000
    C53     C    0.41893   0.70432   0.93016   1.000
    C54     C    0.91901   0.20450   0.92983   1.000
    C55     C    0.91892   0.70432   0.93010   1.000
    C56     C    0.45428   0.48959   0.07039   1.000
    C57     C    0.45425   0.98949   0.07030   1.000
    C58     C    0.95427   0.48958   0.07038   1.000
    C59     C    0.95424   0.98950   0.07032   1.000
    C60     C    0.04454   0.48621   0.09305   1.000
    C61     C    0.04449   0.98604   0.09290   1.000
    C62     C    0.54453   0.48622   0.09305   1.000
    C63     C    0.54448   0.98603   0.09290   1.000
    C64     C    0.40982   0.50352   0.97681   1.000
    C65     C    0.40984   0.00000   0.97689   1.000
    C66     C    0.90981   0.50351   0.97681   1.000
    C67     C    0.90983   0.00000   0.97690   1.000
    C68     C    0.00216   0.31057   0.09210   1.000
    C69     C    0.00207   0.81039   0.09243   1.000
    C70     C    0.50215   0.31057   0.09209   1.000
    C71     C    0.50206   0.81038   0.09243   1.000
    C72     C    0.07863   0.23479   0.97706   1.000
    C73     C    0.07855   0.73461   0.97739   1.000
    C74     C    0.57862   0.23479   0.97705   1.000
    C75     C    0.57853   0.73461   0.97739   1.000
    C76     C    0.08109   0.29567   0.06985   1.000
    C77     C    0.08100   0.79549   0.07018   1.000
    C78     C    0.58107   0.29567   0.06985   1.000
    C79     C    0.58099   0.79549   0.07019   1.000
loop_
    _geom_bond_atom_site_label_1
    _geom_bond_atom_site_label_2
    _geom_bond_distance
    _geom_bond_site_symmetry_2
    _ccdc_geom_bond_type
    C48    H12       1.09031      .   S
    C48    C70       1.39237      .   S
    C48    C52       1.40552  1_554   S
    C50    H14       1.09030      .   S
    C50    C68       1.39258  1_655   S
    C50    C54       1.40525  1_554   S
    C49    H13       1.09028      .   S
    C49    C71       1.39235      .   S
    C49    C53       1.40524  1_554   S
    C51    H15       1.09028      .   S
    C51    C69       1.39256  1_655   S
    C51    C55       1.40574  1_554   S
    C40    H4        1.09030      .   S
    C40    C61       1.39239      .   S
    C40    C32       1.40522  1_564   S
    C42    H6        1.09031      .   S
    C42    C63       1.39248      .   S
    C42    C34       1.40512  1_564   S
    C41    H5        1.09028      .   S
    C41    C60       1.39265      .   S
    C41    C33       1.40489  1_554   S
    C43    H7        1.09081      .   S
    C43    C62       1.39236      .   S
    C43    C35       1.40507  1_554   S
    C78    C70       1.40427      .   S
    C78    C74       1.40524  1_554   S
    C76    C68       1.40434      .   S
    C76    C72       1.40515  1_554   S
    C77    C69       1.40432      .   S
    C77    C73       1.40518  1_554   S
    C79    C71       1.40426      .   S
    C79    C75       1.40525  1_554   S
    C57    C63       1.40423      .   S
    C57    C65       1.36768  1_564   S
    C59    C61       1.40451  1_655   S
    C59    C67       1.36769  1_564   S
    C58    C60       1.40449  1_655   S
    C58    C66       1.40514  1_554   S
    C56    C62       1.40423      .   S
    C56    C64       1.40521  1_554   S
    C70    H26       1.08939      .   S
    C68    H24       1.08938      .   S
    C69    H25       1.08935      .   S
    C71    H27       1.08937      .   S
    C63    H19       1.08926      .   S
    C61    H17       1.08930      .   S
    C62    H18       1.08925      .   S
    C60    H16       1.08923      .   S
    H3     C39       1.08978      .   S
    H1     C37       1.08833      .   S
    H2     C38       1.08893      .   S
    H0     C36       1.08935      .   S
    H10    C46       1.08931      .   S
    H8     C44       1.08930      .   S
    H11    C47       1.08940      .   S
    H9     C45       1.08941      .   S
    C37    C35       1.40417      .   S
    C37    C64       1.39328      .   S
    C39    C33       1.40450  1_655   S
    C39    C66       1.39229      .   S
    C38    C32       1.40450  1_655   S
    C38    C67       1.41803      .   S
    C36    C34       1.40424      .   S
    C36    C65       1.41748      .   S
    C46    C54       1.40430      .   S
    C46    C72       1.39258  1_655   S
    C44    C52       1.40413      .   S
    C44    C74       1.39238      .   S
    C47    C55       1.40397      .   S
    C47    C73       1.39259  1_655   S
    C45    C53       1.40427      .   S
    C45    C75       1.39239      .   S
    H23    C67       1.07970      .   S
    H20    C64       1.09029      .   S
    H22    C66       1.09029      .   S
    H21    C65       1.08015      .   S
    H28    C72       1.09035      .   S
    H30    C74       1.09030      .   S
    H31    C75       1.09030      .   S
    H29    C73       1.09031      .   S
