# CIF file generated by openbabel 2.4.90, see http://openbabel.sf.net
data_I
_chemical_name_common ''
_cell_length_a 15.976
_cell_length_b 19.736
_cell_length_c 13.545
_cell_angle_alpha 109.661
_cell_angle_beta 105.44
_cell_angle_gamma 94.817
_space_group_name_H-M_alt 'P 1'
_space_group_name_Hall 'P 1'
loop_
    _symmetry_equiv_pos_as_xyz
    x,y,z
loop_
    _atom_site_label
    _atom_site_type_symbol
    _atom_site_fract_x
    _atom_site_fract_y
    _atom_site_fract_z
    _atom_site_occupancy
    Zn0     Zn   0.19028   0.56433   0.75929   1.000
    Zn1     Zn   0.69023   0.06458   0.75938   1.000
    Zn2     Zn   0.69027   0.56434   0.75929   1.000
    Zn3     Zn   0.30974   0.43564   0.24075   1.000
    Zn4     Zn   0.30978   0.93540   0.24067   1.000
    Zn5     Zn   0.80973   0.43565   0.24075   1.000
    Zn6     Zn   0.80977   0.93540   0.24066   1.000
    Zn7     Zn   0.99985   0.24990   0.49980   1.000
    Zn8     Zn   0.00015   0.75008   0.50026   1.000
    Zn9     Zn   0.49984   0.24990   0.49981   1.000
    Zn10    Zn   0.50015   0.75009   0.50020   1.000
    Zn11    Zn   0.24980   0.24982   0.49963   1.000
    Zn12    Zn   0.25018   0.75016   0.50040   1.000
    Zn13    Zn   0.74979   0.24982   0.49963   1.000
    Zn14    Zn   0.75017   0.75015   0.50041   1.000
    H15     H    0.03663   0.42535   0.61367   1.000
    H16     H    0.03674   0.92550   0.61364   1.000
    H17     H    0.53663   0.42535   0.61368   1.000
    H18     H    0.53673   0.92551   0.61364   1.000
    H19     H    0.30331   0.42890   0.63743   1.000
    H20     H    0.30356   0.92926   0.63812   1.000
    H21     H    0.80331   0.42890   0.63740   1.000
    H22     H    0.80356   0.92926   0.63812   1.000
    H23     H    0.01554   0.13858   0.63683   1.000
    H24     H    0.01562   0.63840   0.63664   1.000
    H25     H    0.51553   0.13858   0.63684   1.000
    H26     H    0.51561   0.63840   0.63660   1.000
    H27     H    0.27004   0.13027   0.61228   1.000
    H28     H    0.27040   0.63052   0.61292   1.000
    H29     H    0.77003   0.13027   0.61228   1.000
    H30     H    0.77039   0.63052   0.61292   1.000
    H31     H    0.42215   0.02695   0.83630   1.000
    Zn32    Zn   0.19023   0.06458   0.75938   1.000
    H33     H    0.42206   0.52664   0.83604   1.000
    H34     H    0.92214   0.02695   0.83630   1.000
    H35     H    0.92205   0.52664   0.83600   1.000
    H36     H    0.16013   0.99355   0.03954   1.000
    H37     H    0.16017   0.49371   0.03969   1.000
    H38     H    0.66012   0.99355   0.03955   1.000
    H39     H    0.66017   0.49371   0.03900   1.000
    H40     H    0.49575   0.14121   0.83718   1.000
    H41     H    0.49566   0.64104   0.83749   1.000
    H42     H    0.99574   0.14121   0.83718   1.000
    H43     H    0.99566   0.64104   0.83749   1.000
    H44     H    0.35970   0.27649   0.03879   1.000
    H45     H    0.35961   0.77631   0.03910   1.000
    H46     H    0.85969   0.27649   0.03879   1.000
    H47     H    0.85960   0.77631   0.03910   1.000
    H48     H    0.46327   0.07449   0.38643   1.000
    H49     H    0.46337   0.57464   0.38640   1.000
    H50     H    0.96326   0.07448   0.38642   1.000
    H51     H    0.96336   0.57464   0.38639   1.000
    H52     H    0.19643   0.07072   0.36189   1.000
    H53     H    0.19668   0.57108   0.36257   1.000
    H54     H    0.69642   0.07071   0.36190   1.000
    H55     H    0.69667   0.57107   0.36258   1.000
    H56     H    0.48439   0.36159   0.36344   1.000
    H57     H    0.48447   0.86141   0.36325   1.000
    H58     H    0.98438   0.36159   0.36343   1.000
    H59     H    0.98446   0.86140   0.36320   1.000
    H60     H    0.22960   0.36945   0.38709   1.000
    H61     H    0.22995   0.86971   0.38774   1.000
    H62     H    0.72958   0.36945   0.38708   1.000
    H63     H    0.72994   0.86970   0.38773   1.000
    H64     H    0.07794   0.47335   0.16399   1.000
    H65     H    0.07785   0.97304   0.16373   1.000
    H66     H    0.57793   0.47335   0.16399   1.000
    H67     H    0.57784   0.97304   0.16373   1.000
    H68     H    0.33983   0.50628   0.96034   1.000
    H69     H    0.33987   0.00000   0.96049   1.000
    H70     H    0.83982   0.50628   0.96034   1.000
    H71     H    0.83986   0.00000   0.96000   1.000
    H72     H    0.00435   0.35895   0.16253   1.000
    H73     H    0.00426   0.85878   0.16284   1.000
    H74     H    0.50433   0.35895   0.16252   1.000
    H75     H    0.50425   0.85878   0.16284   1.000
    H76     H    0.14040   0.22368   0.96091   1.000
    H77     H    0.14031   0.72350   0.96123   1.000
    H78     H    0.64039   0.22368   0.96091   1.000
    H79     H    0.64030   0.72350   0.96123   1.000
    C80     C    0.09713   0.40751   0.60289   1.000
    C81     C    0.09730   0.90772   0.60307   1.000
    C82     C    0.59712   0.40751   0.60290   1.000
    C83     C    0.59730   0.90772   0.60307   1.000
    C84     C    0.23281   0.40974   0.61626   1.000
    C85     C    0.23305   0.91005   0.61680   1.000
    C86     C    0.73281   0.40975   0.61626   1.000
    C87     C    0.73305   0.91005   0.61680   1.000
    C88     C    0.07531   0.14726   0.61552   1.000
    C89     C    0.07549   0.64722   0.61558   1.000
    C90     C    0.57531   0.14726   0.61552   1.000
    C91     C    0.57548   0.64722   0.61559   1.000
    C92     C    0.20415   0.14279   0.60174   1.000
    C93     C    0.20447   0.64297   0.60223   1.000
    C94     C    0.70415   0.14279   0.60170   1.000
    C95     C    0.70446   0.64297   0.60223   1.000
    C96     C    0.09568   0.02448   0.85765   1.000
    C97     C    0.09563   0.52431   0.85751   1.000
    C98     C    0.59567   0.02447   0.85765   1.000
    C99     C    0.59562   0.52431   0.85752   1.000
    N100    N    0.64659   0.61738   0.64375   1.000
    N101    N    0.39642   0.16162   0.44957   1.000
    N102    N    0.39671   0.66182   0.44994   1.000
    N103    N    0.89641   0.16162   0.44957   1.000
    C104    C    0.04575   0.01049   0.92971   1.000
    C105    C    0.04572   0.51041   0.92965   1.000
    C106    C    0.54574   0.01050   0.92972   1.000
    C107    C    0.54571   0.51041   0.92965   1.000
    C108    C    0.45551   0.01396   0.90714   1.000
    C109    C    0.45546   0.51377   0.90690   1.000
    C110    C    0.95550   0.01396   0.90710   1.000
    C111    C    0.95545   0.51378   0.90699   1.000
    C112    C    0.09016   0.99638   0.02314   1.000
    C113    C    0.09018   0.49648   0.02320   1.000
    C114    C    0.59015   0.99639   0.02314   1.000
    C115    C    0.59017   0.49648   0.02322   1.000
    C116    C    0.49794   0.18960   0.90758   1.000
    C117    C    0.49785   0.68942   0.90792   1.000
    C118    C    0.99793   0.18961   0.90758   1.000
    C119    C    0.99785   0.68942   0.90792   1.000
    C120    C    0.42147   0.26538   0.02263   1.000
    C121    C    0.42138   0.76520   0.02296   1.000
    C122    C    0.92146   0.26538   0.02263   1.000
    C123    C    0.92137   0.76520   0.02296   1.000
    C124    C    0.41901   0.20450   0.92980   1.000
    C125    C    0.41893   0.70432   0.93016   1.000
    C126    C    0.91901   0.20450   0.92983   1.000
    C127    C    0.91892   0.70432   0.93010   1.000
    C128    C    0.33288   0.15460   0.85816   1.000
    C129    C    0.33277   0.65446   0.85848   1.000
    C130    C    0.83288   0.15460   0.85817   1.000
    C131    C    0.83277   0.65446   0.85848   1.000
    C132    C    0.40270   0.09227   0.39698   1.000
    C133    C    0.40287   0.59247   0.39716   1.000
    C134    C    0.90269   0.09227   0.39698   1.000
    C135    C    0.90286   0.59247   0.39716   1.000
    C136    C    0.26694   0.08993   0.38323   1.000
    C137    C    0.26719   0.59023   0.38376   1.000
    C138    C    0.76693   0.08992   0.38323   1.000
    C139    C    0.76718   0.59023   0.38376   1.000
    C140    C    0.42452   0.35277   0.38448   1.000
    C141    C    0.42469   0.85273   0.38454   1.000
    C142    C    0.92450   0.35277   0.38447   1.000
    C143    C    0.92468   0.85272   0.38450   1.000
    C144    C    0.29552   0.35701   0.39780   1.000
    C145    C    0.29584   0.85719   0.39829   1.000
    C146    C    0.79551   0.35700   0.39779   1.000
    C147    C    0.79583   0.85718   0.39828   1.000
    C148    C    0.40436   0.47568   0.14251   1.000
    C149    C    0.40431   0.97552   0.14238   1.000
    C150    C    0.90436   0.47568   0.14250   1.000
    C151    C    0.90430   0.97551   0.14238   1.000
    C152    C    0.45428   0.48959   0.07039   1.000
    C153    C    0.45425   0.98949   0.07030   1.000
    C154    C    0.95427   0.48958   0.07038   1.000
    C155    C    0.95424   0.98950   0.07032   1.000
    C156    C    0.04454   0.48621   0.09305   1.000
    C157    C    0.04449   0.98604   0.09290   1.000
    C158    C    0.54453   0.48622   0.09305   1.000
    C159    C    0.54448   0.98603   0.09290   1.000
    C160    C    0.40982   0.50352   0.97681   1.000
    C161    C    0.40984   0.00000   0.97689   1.000
    C162    C    0.90981   0.50351   0.97681   1.000
    C163    C    0.90983   0.00000   0.97690   1.000
    C164    C    0.00216   0.31057   0.09210   1.000
    C165    C    0.00207   0.81039   0.09243   1.000
    C166    C    0.50215   0.31057   0.09209   1.000
    C167    C    0.50206   0.81038   0.09243   1.000
    C168    C    0.07863   0.23479   0.97706   1.000
    C169    C    0.07855   0.73461   0.97739   1.000
    C170    C    0.57862   0.23479   0.97705   1.000
    C171    C    0.57853   0.73461   0.97739   1.000
    C172    C    0.08109   0.29567   0.06985   1.000
    C173    C    0.08100   0.79549   0.07018   1.000
    C174    C    0.58107   0.29567   0.06985   1.000
    C175    C    0.58099   0.79549   0.07019   1.000
    C176    C    0.16724   0.34553   0.14154   1.000
    C177    C    0.16713   0.84539   0.14186   1.000
    C178    C    0.66723   0.34553   0.14154   1.000
    C179    C    0.66711   0.84540   0.14185   1.000
    N180    N    0.10328   0.33816   0.55011   1.000
    N181    N    0.10357   0.83836   0.55048   1.000
    N182    N    0.60328   0.33816   0.55011   1.000
    N183    N    0.60357   0.83836   0.55048   1.000
    N184    N    0.19199   0.33949   0.55894   1.000
    N185    N    0.19233   0.83977   0.55954   1.000
    N186    N    0.69198   0.33950   0.55894   1.000
    N187    N    0.69232   0.83977   0.55955   1.000
    N188    N    0.17597   0.45360   0.64460   1.000
    N189    N    0.17611   0.95386   0.64494   1.000
    N190    N    0.67597   0.45360   0.64467   1.000
    N191    N    0.67610   0.95386   0.64494   1.000
    N192    N    0.08726   0.18919   0.55835   1.000
    N193    N    0.08755   0.68931   0.55867   1.000
    N194    N    0.58725   0.18919   0.55835   1.000
    N195    N    0.58754   0.68931   0.55868   1.000
    N196    N    0.17145   0.18611   0.54925   1.000
    N197    N    0.17183   0.68637   0.54985   1.000
    N198    N    0.67144   0.18611   0.54925   1.000
    N199    N    0.67182   0.68637   0.54985   1.000
    N200    N    0.14641   0.11739   0.64300   1.000
    N201    N    0.14660   0.61738   0.64375   1.000
    N202    N    0.64641   0.11739   0.64360   1.000
    N203    N    0.89670   0.66182   0.44994   1.000
    N204    N    0.30766   0.16021   0.44049   1.000
    N205    N    0.30800   0.66048   0.44109   1.000
    N206    N    0.80765   0.16021   0.44049   1.000
    N207    N    0.80799   0.66048   0.44109   1.000
    N208    N    0.32389   0.04612   0.35510   1.000
    N209    N    0.32403   0.54638   0.35537   1.000
    N210    N    0.82388   0.04612   0.35510   1.000
    N211    N    0.82402   0.54638   0.35537   1.000
    N212    N    0.41245   0.31068   0.44138   1.000
    N213    N    0.41274   0.81079   0.44171   1.000
    N214    N    0.91244   0.31067   0.44138   1.000
    N215    N    0.91272   0.81079   0.44170   1.000
    N216    N    0.32816   0.31361   0.45018   1.000
    N217    N    0.32854   0.81387   0.45079   1.000
    N218    N    0.82815   0.31361   0.45018   1.000
    N219    N    0.82853   0.81386   0.45078   1.000
    N220    N    0.35341   0.38261   0.35630   1.000
    N221    N    0.35359   0.88260   0.35645   1.000
    N222    N    0.85339   0.38260   0.35629   1.000
    N223    N    0.85358   0.88259   0.35644   1.000
    O224    O    0.05602   0.03792   0.77195   1.000
    O225    O    0.05597   0.53776   0.77182   1.000
    O226    O    0.55601   0.03792   0.77195   1.000
    O227    O    0.55597   0.53776   0.77182   1.000
    O228    O    0.17856   0.02444   0.88287   1.000
    O229    O    0.17850   0.52422   0.88269   1.000
    O230    O    0.67855   0.02444   0.88287   1.000
    O231    O    0.67849   0.52422   0.88270   1.000
    O232    O    0.32968   0.09812   0.77315   1.000
    O233    O    0.32958   0.59793   0.77349   1.000
    O234    O    0.82968   0.09812   0.77315   1.000
    O235    O    0.82958   0.59793   0.77349   1.000
    O236    O    0.26257   0.16733   0.88278   1.000
    O237    O    0.26245   0.66725   0.88297   1.000
    O238    O    0.76257   0.16732   0.88279   1.000
    O239    O    0.76244   0.66725   0.88290   1.000
    O240    O    0.44402   0.46222   0.22820   1.000
    O241    O    0.44397   0.96205   0.22807   1.000
    O242    O    0.94401   0.46222   0.22820   1.000
    O243    O    0.94396   0.96206   0.22807   1.000
    O244    O    0.32149   0.47578   0.11734   1.000
    O245    O    0.32144   0.97556   0.11716   1.000
    O246    O    0.82149   0.47578   0.11734   1.000
    O247    O    0.82143   0.97556   0.11716   1.000
    O248    O    0.17042   0.40205   0.22653   1.000
    O249    O    0.17032   0.90187   0.22688   1.000
    O250    O    0.67041   0.40205   0.22653   1.000
    O251    O    0.67031   0.90187   0.22688   1.000
    O252    O    0.23757   0.33274   0.11706   1.000
    O253    O    0.23744   0.83266   0.11726   1.000
    O254    O    0.73756   0.33274   0.11705   1.000
    O255    O    0.73743   0.83266   0.11725   1.000
loop_
    _geom_bond_atom_site_label_1
    _geom_bond_atom_site_label_2
    _geom_bond_distance
    _geom_bond_site_symmetry_2
    _ccdc_geom_bond_type
    C120   H44       1.09031      .   S
    C120   C166      1.39237      .   S
    C120   C124      1.40552  1_554   S
    C122   H46       1.09030      .   S
    C122   C164      1.39258  1_655   S
    C122   C126      1.40525  1_554   S
    C121   H45       1.09028      .   S
    C121   C167      1.39235      .   S
    C121   C125      1.40524  1_554   S
    C123   H47       1.09028      .   S
    C123   C165      1.39256  1_655   S
    C123   C127      1.40574  1_554   S
    C112   H36       1.09030      .   S
    C112   C157      1.39239      .   S
    C112   C104      1.40522  1_564   S
    C114   H38       1.09031      .   S
    C114   C159      1.39248      .   S
    C114   C106      1.40512  1_564   S
    C113   H37       1.09028      .   S
    C113   C156      1.39265      .   S
    C113   C105      1.40489  1_554   S
    C115   H39       1.09081      .   S
    C115   C158      1.39236      .   S
    C115   C107      1.40507  1_554   S
    C174   C166      1.40427      .   S
    C174   C178      1.49114      .   S
    C174   C170      1.40524  1_554   S
    C172   C164      1.40434      .   S
    C172   C176      1.49114      .   S
    C172   C168      1.40515  1_554   S
    C173   C165      1.40432      .   S
    C173   C177      1.49115      .   S
    C173   C169      1.40518  1_554   S
    C175   C167      1.40426      .   S
    C175   C179      1.49115      .   S
    C175   C171      1.40525  1_554   S
    C153   C159      1.40423      .   S
    C153   C149      1.49153      .   S
    C153   C161      1.36768  1_564   S
    C155   C157      1.40451  1_655   S
    C155   C151      1.49145      .   S
    C155   C163      1.36769  1_564   S
    C154   C156      1.40449  1_655   S
    C154   C150      1.49117      .   S
    C154   C162      1.40514  1_554   S
    C152   C158      1.40423      .   S
    C152   C148      1.49129      .   S
    C152   C160      1.40521  1_554   S
    C166   H74       1.08939      .   S
    C164   H72       1.08938      .   S
    C165   H73       1.08935      .   S
    C167   H75       1.08937      .   S
    C159   H67       1.08926      .   S
    C157   H65       1.08930      .   S
    C158   H66       1.08925      .   S
    C156   H64       1.08923      .   S
    O254   C178      1.27513      .   S
    O254   Zn5       2.13302      .   S
    O252   C176      1.27509      .   S
    O252   Zn3       2.13299      .   S
    O245   C149      1.27647      .   S
    O245   Zn4       2.12003      .   S
    O247   C151      1.27646      .   S
    O247   Zn6       2.12001      .   S
    O255   C179      1.27535      .   S
    O255   Zn6       2.13030      .   S
    O253   C177      1.27536      .   S
    O253   Zn4       2.13033      .   S
    O244   C148      1.27654      .   S
    O244   Zn3       2.11898      .   S
    O246   C150      1.27655      .   S
    O246   Zn5       2.11901      .   S
    C176   O248      1.29127      .   S
    C178   O250      1.29128      .   S
    C179   O251      1.29100      .   S
    C177   O249      1.29101      .   S
    C149   O241      1.28973      .   S
    C151   O243      1.28966      .   S
    C150   O242      1.28983      .   S
    C148   O240      1.28964      .   S
    O248   Zn3       2.20644      .   S
    O250   Zn5       2.20643      .   S
    O251   Zn6       2.21012      .   S
    O249   Zn4       2.21012      .   S
    O243   Zn6       2.22879      .   S
    O241   Zn4       2.22876      .   S
    O242   Zn5       2.22961      .   S
    O240   Zn3       2.22959      .   S
    Zn6    N210      2.16335  1_565   S
    Zn6    N223      2.16182      .   S
    Zn4    N208      2.16333  1_565   S
    Zn4    N221      2.16178      .   S
    Zn3    N209      2.16402      .   S
    Zn3    N220      2.16230      .   S
    Zn5    N211      2.16397      .   S
    Zn5    N222      2.16226      .   S
    N208   C136      1.34746      .   S
    N208   C132      1.34756      .   S
    N210   C138      1.34745      .   S
    N210   C134      1.34755      .   S
    N209   C137      1.34747      .   S
    N209   C133      1.34757      .   S
    N211   C139      1.34747      .   S
    N211   C135      1.34757      .   S
    N222   C142      1.34750      .   S
    N222   C146      1.34752      .   S
    N220   C140      1.34750      .   S
    N220   C144      1.34752      .   S
    N223   C143      1.34743      .   S
    N223   C147      1.34749      .   S
    N221   C141      1.34750      .   S
    N221   C145      1.34754      .   S
    H52    C136      1.08508      .   S
    H54    C138      1.08509      .   S
    H53    C137      1.08506      .   S
    H55    C139      1.08508      .   S
    H59    C143      1.08505      .   S
    H57    C141      1.08499      .   S
    H58    C142      1.08499      .   S
    H56    C140      1.08499      .   S
    C138   N206      1.34335      .   S
    C136   N204      1.34334      .   S
    C139   N207      1.34337      .   S
    C137   N205      1.34337      .   S
    C142   N214      1.34338      .   S
    C140   N212      1.34328      .   S
    C143   N215      1.34362      .   S
    C141   N213      1.34333      .   S
    H51    C135      1.08490      .   S
    H49    C133      1.08487      .   S
    H50    C134      1.08486      .   S
    H48    C132      1.08483      .   S
    H62    C146      1.08481      .   S
    H60    C144      1.08480      .   S
    H63    C147      1.08479      .   S
    H61    C145      1.08481      .   S
    C134   N103      1.34012      .   S
    C132   N101      1.34010      .   S
    C135   N203      1.34011      .   S
    C133   N102      1.34011      .   S
    C146   N218      1.34010      .   S
    C144   N216      1.34003      .   S
    C147   N219      1.34011      .   S
    C145   N217      1.34011      .   S
    N206   N103      1.38735      .   S
    N206   Zn13      2.08318      .   S
    N204   N101      1.38735      .   S
    N204   Zn11      2.08317      .   S
    N207   N203      1.38730      .   S
    N207   Zn14      2.08416      .   S
    N205   N102      1.38731      .   S
    N205   Zn12      2.08414      .   S
    N214   N218      1.38739      .   S
    N214   Zn7       2.08479      .   S
    N212   N216      1.38737      .   S
    N212   Zn9       2.08467      .   S
    N215   N219      1.38738      .   S
    N215   Zn8       2.08472  1_655   S
    N213   N217      1.38738      .   S
    N213   Zn10      2.08418      .   S
    N101   Zn9       2.08538      .   S
    N103   Zn7       2.08556      .   S
    N102   Zn10      2.08520      .   S
    N203   Zn8       2.08524  1_655   S
    N218   Zn13      2.08553      .   S
    N216   Zn11      2.08561      .   S
    N219   Zn14      2.08624      .   S
    N217   Zn12      2.08611      .   S
    Zn11   N196      2.08614      .   S
    Zn11   N184      2.08413      .   S
    Zn13   N198      2.08610      .   S
    Zn13   N186      2.08413      .   S
    Zn7    N180      2.08508  1_655   S
    Zn7    N192      2.08454  1_655   S
    Zn9    N182      2.08510      .   S
    Zn9    N194      2.08451      .   S
    Zn10   N183      2.08527      .   S
    Zn10   N195      2.08501      .   S
    Zn8    N181      2.08540      .   S
    Zn8    N193      2.08465      .   S
    Zn12   N197      2.08551      .   S
    Zn12   N185      2.08318      .   S
    Zn14   N199      2.08544      .   S
    Zn14   N187      2.08315      .   S
    N196   N192      1.38739      .   S
    N196   C92       1.34006      .   S
    N198   N194      1.38739      .   S
    N198   C94       1.33972      .   S
    N197   N193      1.38738      .   S
    N197   C93       1.34008      .   S
    N199   N195      1.38743      .   S
    N199   C95       1.34008      .   S
    N180   N184      1.38731      .   S
    N180   C80       1.34009      .   S
    N182   N186      1.38731      .   S
    N182   C82       1.34012      .   S
    N181   N185      1.38736      .   S
    N181   C81       1.34010      .   S
    N183   N187      1.38734      .   S
    N183   C83       1.34009      .   S
    N192   C88       1.34327      .   S
    N194   C90       1.34325      .   S
    N193   C89       1.34332      .   S
    N195   C91       1.34332      .   S
    N186   C86       1.34336      .   S
    N184   C84       1.34334      .   S
    N185   C85       1.34334      .   S
    N187   C87       1.34333      .   S
    C94    H29       1.08477      .   S
    C94    N202      1.34794      .   S
    C92    H27       1.08480      .   S
    C92    N200      1.34166      .   S
    C93    H28       1.08481      .   S
    C93    N201      1.34755      .   S
    C95    H30       1.08480      .   S
    C95    N100      1.34754      .   S
    C80    H15       1.08490      .   S
    C80    N188      1.34762      .   S
    C82    H17       1.08488      .   S
    C82    N190      1.34760      .   S
    C81    H16       1.08487      .   S
    C81    N189      1.34756      .   S
    C83    H18       1.08485      .   S
    C83    N191      1.34756      .   S
    C88    H23       1.08504      .   S
    C88    N200      1.34586      .   S
    C90    H25       1.08510      .   S
    C90    N202      1.34753      .   S
    C89    H24       1.08505      .   S
    C89    N201      1.34752      .   S
    C91    H26       1.08466      .   S
    C91    N100      1.34747      .   S
    C84    H19       1.08507      .   S
    C84    N188      1.34725      .   S
    C86    H21       1.08512      .   S
    C86    N190      1.34747      .   S
    C85    H20       1.08509      .   S
    C85    N189      1.34745      .   S
    C87    H22       1.08510      .   S
    C87    N191      1.34745      .   S
    N200   Zn32      2.16833      .   S
    N202   Zn1       2.16188      .   S
    N201   Zn0       2.16230      .   S
    N100   Zn2       2.16225      .   S
    N188   Zn0       2.16427      .   S
    N190   Zn2       2.16399      .   S
    N189   Zn32      2.16337  1_565   S
    N191   Zn1       2.16333  1_565   S
    Zn0    O225      2.22990      .   S
    Zn0    O233      2.20638      .   S
    Zn0    O229      2.11872      .   S
    Zn0    O237      2.13305      .   S
    Zn2    O227      2.22991      .   S
    Zn2    O235      2.20639      .   S
    Zn2    O231      2.11886      .   S
    Zn2    O239      2.13271      .   S
    Zn32   O224      2.22903      .   S
    Zn32   O232      2.21005      .   S
    Zn32   O236      2.13038      .   S
    Zn32   O228      2.11969      .   S
    Zn1    O226      2.22906      .   S
    Zn1    O234      2.21005      .   S
    Zn1    O238      2.13040      .   S
    Zn1    O230      2.11972      .   S
    O225   C97       1.28959      .   S
    O227   C99       1.28963      .   S
    O224   C96       1.28964      .   S
    O226   C98       1.28972      .   S
    O232   C128      1.29094      .   S
    O234   C130      1.29095      .   S
    O233   C129      1.29127      .   S
    O235   C131      1.29130      .   S
    H35    C111      1.08978      .   S
    H33    C109      1.08833      .   S
    H34    C110      1.08893      .   S
    H31    C108      1.08935      .   S
    H42    C118      1.08931      .   S
    H40    C116      1.08930      .   S
    H43    C119      1.08940      .   S
    H41    C117      1.08941      .   S
    C97    O229      1.27656      .   S
    C97    C105      1.49133      .   S
    C99    O231      1.27656      .   S
    C99    C107      1.49134      .   S
    C98    O230      1.27648      .   S
    C98    C106      1.49137      .   S
    C96    O228      1.27650      .   S
    C96    C104      1.49137      .   S
    C128   O236      1.27540      .   S
    C128   C124      1.49108      .   S
    C130   O238      1.27541      .   S
    C130   C126      1.49114      .   S
    C131   O239      1.27467      .   S
    C131   C127      1.49097      .   S
    C129   O237      1.27511      .   S
    C129   C125      1.49116      .   S
    C109   C107      1.40417      .   S
    C109   C160      1.39328      .   S
    C111   C105      1.40450  1_655   S
    C111   C162      1.39229      .   S
    C110   C104      1.40450  1_655   S
    C110   C163      1.41803      .   S
    C108   C106      1.40424      .   S
    C108   C161      1.41748      .   S
    C118   C126      1.40430      .   S
    C118   C168      1.39258  1_655   S
    C116   C124      1.40413      .   S
    C116   C170      1.39238      .   S
    C119   C127      1.40397      .   S
    C119   C169      1.39259  1_655   S
    C117   C125      1.40427      .   S
    C117   C171      1.39239      .   S
    H71    C163      1.07970      .   S
    H68    C160      1.09029      .   S
    H70    C162      1.09029      .   S
    H69    C161      1.08015      .   S
    H76    C168      1.09035      .   S
    H78    C170      1.09030      .   S
    H79    C171      1.09030      .   S
    H77    C169      1.09031      .   S
