# CIF file generated by openbabel 2.4.90, see http://openbabel.sf.net
data_I
_chemical_name_common ''
_cell_length_a 15.976
_cell_length_b 19.736
_cell_length_c 13.545
_cell_angle_alpha 109.661
_cell_angle_beta 105.44
_cell_angle_gamma 94.817
_space_group_name_H-M_alt 'P 1'
_space_group_name_Hall 'P 1'
loop_
    _symmetry_equiv_pos_as_xyz
    x,y,z
loop_
    _atom_site_label
    _atom_site_type_symbol
    _atom_site_fract_x
    _atom_site_fract_y
    _atom_site_fract_z
    _atom_site_occupancy
    C0      C    0.09568   0.02448   0.85765   1.000
    C1      C    0.09563   0.52431   0.85751   1.000
    C2      C    0.59567   0.02447   0.85765   1.000
    C3      C    0.59562   0.52431   0.85752   1.000
    C4      C    0.33288   0.15460   0.85816   1.000
    C5      C    0.33277   0.65446   0.85848   1.000
    C6      C    0.83288   0.15460   0.85817   1.000
    C7      C    0.83277   0.65446   0.85848   1.000
    C8      C    0.40436   0.47568   0.14251   1.000
    C9      C    0.40431   0.97552   0.14238   1.000
    C10     C    0.90436   0.47568   0.14250   1.000
    C11     C    0.90430   0.97551   0.14238   1.000
    C12     C    0.16724   0.34553   0.14154   1.000
    C13     C    0.16713   0.84539   0.14186   1.000
    C14     C    0.66723   0.34553   0.14154   1.000
    C15     C    0.66711   0.84540   0.14185   1.000
