# CIF file generated by openbabel 2.4.90, see http://openbabel.sf.net
data_I
_chemical_name_common ''
_cell_length_a 15.976
_cell_length_b 19.736
_cell_length_c 13.545
_cell_angle_alpha 109.661
_cell_angle_beta 105.44
_cell_angle_gamma 94.817
_space_group_name_H-M_alt 'P 1'
_space_group_name_Hall 'P 1'
loop_
    _symmetry_equiv_pos_as_xyz
    x,y,z
loop_
    _atom_site_label
    _atom_site_type_symbol
    _atom_site_fract_x
    _atom_site_fract_y
    _atom_site_fract_z
    _atom_site_occupancy
    C0      C    0.19023   0.06458   0.75938   1.000
    C1      C    0.19028   0.56433   0.75929   1.000
    C2      C    0.69023   0.06458   0.75938   1.000
    C3      C    0.69027   0.56434   0.75929   1.000
    C4      C    0.30974   0.43564   0.24075   1.000
    C5      C    0.30978   0.93540   0.24067   1.000
    C6      C    0.80973   0.43565   0.24075   1.000
    C7      C    0.80977   0.93540   0.24066   1.000
    C8      C    0.99985   0.24990   0.49980   1.000
    C9      C    0.00015   0.75008   0.50026   1.000
    C10     C    0.49984   0.24990   0.49981   1.000
    C11     C    0.50015   0.75009   0.50020   1.000
    C12     C    0.24980   0.24982   0.49963   1.000
    C13     C    0.25018   0.75016   0.50040   1.000
    C14     C    0.74979   0.24982   0.49963   1.000
    C15     C    0.75017   0.75015   0.50041   1.000
    C16     C    0.03663   0.42535   0.61367   1.000
    C17     C    0.03674   0.92550   0.61364   1.000
    C18     C    0.53663   0.42535   0.61368   1.000
    C19     C    0.53673   0.92551   0.61364   1.000
    C20     C    0.30331   0.42890   0.63743   1.000
    C21     C    0.30356   0.92926   0.63812   1.000
    C22     C    0.80331   0.42890   0.63740   1.000
    C23     C    0.80356   0.92926   0.63812   1.000
    C24     C    0.01554   0.13858   0.63683   1.000
    C25     C    0.01562   0.63840   0.63664   1.000
    C26     C    0.51553   0.13858   0.63684   1.000
    C27     C    0.51561   0.63840   0.63660   1.000
    C28     C    0.27004   0.13027   0.61228   1.000
    C29     C    0.27040   0.63052   0.61292   1.000
    C30     C    0.77003   0.13027   0.61228   1.000
    C31     C    0.77039   0.63052   0.61292   1.000
    C32     C    0.42215   0.02695   0.83630   1.000
    C33     C    0.42206   0.52664   0.83604   1.000
    C34     C    0.92214   0.02695   0.83630   1.000
    C35     C    0.92205   0.52664   0.83600   1.000
    C36     C    0.16013   0.99355   0.03954   1.000
    C37     C    0.16017   0.49371   0.03969   1.000
    C38     C    0.66012   0.99355   0.03955   1.000
    C39     C    0.66017   0.49371   0.03900   1.000
    C40     C    0.49575   0.14121   0.83718   1.000
    C41     C    0.49566   0.64104   0.83749   1.000
    C42     C    0.99574   0.14121   0.83718   1.000
    C43     C    0.99566   0.64104   0.83749   1.000
    C44     C    0.35970   0.27649   0.03879   1.000
    C45     C    0.35961   0.77631   0.03910   1.000
    C46     C    0.85969   0.27649   0.03879   1.000
    C47     C    0.85960   0.77631   0.03910   1.000
    C48     C    0.46327   0.07449   0.38643   1.000
    C49     C    0.46337   0.57464   0.38640   1.000
    C50     C    0.96326   0.07448   0.38642   1.000
    C51     C    0.96336   0.57464   0.38639   1.000
    C52     C    0.19643   0.07072   0.36189   1.000
    C53     C    0.19668   0.57108   0.36257   1.000
    C54     C    0.69642   0.07071   0.36190   1.000
    C55     C    0.69667   0.57107   0.36258   1.000
    C56     C    0.48439   0.36159   0.36344   1.000
    C57     C    0.48447   0.86141   0.36325   1.000
    C58     C    0.98438   0.36159   0.36343   1.000
    C59     C    0.98446   0.86140   0.36320   1.000
    C60     C    0.22960   0.36945   0.38709   1.000
    C61     C    0.22995   0.86971   0.38774   1.000
    C62     C    0.72958   0.36945   0.38708   1.000
    C63     C    0.72994   0.86970   0.38773   1.000
    C64     C    0.07794   0.47335   0.16399   1.000
    C65     C    0.07785   0.97304   0.16373   1.000
    C66     C    0.57793   0.47335   0.16399   1.000
    C67     C    0.57784   0.97304   0.16373   1.000
    C68     C    0.33983   0.50628   0.96034   1.000
    C69     C    0.33987   0.00000   0.96049   1.000
    C70     C    0.83982   0.50628   0.96034   1.000
    C71     C    0.83986   0.00000   0.96000   1.000
    C72     C    0.00435   0.35895   0.16253   1.000
    C73     C    0.00426   0.85878   0.16284   1.000
    C74     C    0.50433   0.35895   0.16252   1.000
    C75     C    0.50425   0.85878   0.16284   1.000
    C76     C    0.14040   0.22368   0.96091   1.000
    C77     C    0.14031   0.72350   0.96123   1.000
    C78     C    0.64039   0.22368   0.96091   1.000
    C79     C    0.64030   0.72350   0.96123   1.000
    C80     C    0.09713   0.40751   0.60289   1.000
    C81     C    0.09730   0.90772   0.60307   1.000
    C82     C    0.59712   0.40751   0.60290   1.000
    C83     C    0.59730   0.90772   0.60307   1.000
    C84     C    0.23281   0.40974   0.61626   1.000
    C85     C    0.23305   0.91005   0.61680   1.000
    C86     C    0.73281   0.40975   0.61626   1.000
    C87     C    0.73305   0.91005   0.61680   1.000
    C88     C    0.07531   0.14726   0.61552   1.000
    C89     C    0.07549   0.64722   0.61558   1.000
    C90     C    0.57531   0.14726   0.61552   1.000
    C91     C    0.57548   0.64722   0.61559   1.000
    C92     C    0.20415   0.14279   0.60174   1.000
    C93     C    0.20447   0.64297   0.60223   1.000
    C94     C    0.70415   0.14279   0.60170   1.000
    C95     C    0.70446   0.64297   0.60223   1.000
    C96     C    0.09568   0.02448   0.85765   1.000
    C97     C    0.09563   0.52431   0.85751   1.000
    C98     C    0.59567   0.02447   0.85765   1.000
    C99     C    0.59562   0.52431   0.85752   1.000
    C100    C    0.04575   0.01049   0.92971   1.000
    C101    C    0.04572   0.51041   0.92965   1.000
    C102    C    0.54574   0.01050   0.92972   1.000
    C103    C    0.54571   0.51041   0.92965   1.000
    C104    C    0.45551   0.01396   0.90714   1.000
    C105    C    0.45546   0.51377   0.90690   1.000
    C106    C    0.95550   0.01396   0.90710   1.000
    C107    C    0.95545   0.51378   0.90699   1.000
    C108    C    0.09016   0.99638   0.02314   1.000
    C109    C    0.09018   0.49648   0.02320   1.000
    C110    C    0.59015   0.99639   0.02314   1.000
    C111    C    0.59017   0.49648   0.02322   1.000
    C112    C    0.49794   0.18960   0.90758   1.000
    C113    C    0.49785   0.68942   0.90792   1.000
    C114    C    0.99793   0.18961   0.90758   1.000
    C115    C    0.99785   0.68942   0.90792   1.000
    C116    C    0.42147   0.26538   0.02263   1.000
    C117    C    0.42138   0.76520   0.02296   1.000
    C118    C    0.92146   0.26538   0.02263   1.000
    C119    C    0.92137   0.76520   0.02296   1.000
    C120    C    0.41901   0.20450   0.92980   1.000
    C121    C    0.41893   0.70432   0.93016   1.000
    C122    C    0.91901   0.20450   0.92983   1.000
    C123    C    0.91892   0.70432   0.93010   1.000
    C124    C    0.33288   0.15460   0.85816   1.000
    C125    C    0.33277   0.65446   0.85848   1.000
    C126    C    0.83288   0.15460   0.85817   1.000
    C127    C    0.83277   0.65446   0.85848   1.000
    C128    C    0.40270   0.09227   0.39698   1.000
    C129    C    0.40287   0.59247   0.39716   1.000
    C130    C    0.90269   0.09227   0.39698   1.000
    C131    C    0.90286   0.59247   0.39716   1.000
    C132    C    0.26694   0.08993   0.38323   1.000
    C133    C    0.26719   0.59023   0.38376   1.000
    C134    C    0.76693   0.08992   0.38323   1.000
    C135    C    0.76718   0.59023   0.38376   1.000
    C136    C    0.42452   0.35277   0.38448   1.000
    C137    C    0.42469   0.85273   0.38454   1.000
    C138    C    0.92450   0.35277   0.38447   1.000
    C139    C    0.92468   0.85272   0.38450   1.000
    C140    C    0.29552   0.35701   0.39780   1.000
    C141    C    0.29584   0.85719   0.39829   1.000
    C142    C    0.79551   0.35700   0.39779   1.000
    C143    C    0.79583   0.85718   0.39828   1.000
    C144    C    0.40436   0.47568   0.14251   1.000
    C145    C    0.40431   0.97552   0.14238   1.000
    C146    C    0.90436   0.47568   0.14250   1.000
    C147    C    0.90430   0.97551   0.14238   1.000
    C148    C    0.45428   0.48959   0.07039   1.000
    C149    C    0.45425   0.98949   0.07030   1.000
    C150    C    0.95427   0.48958   0.07038   1.000
    C151    C    0.95424   0.98950   0.07032   1.000
    C152    C    0.04454   0.48621   0.09305   1.000
    C153    C    0.04449   0.98604   0.09290   1.000
    C154    C    0.54453   0.48622   0.09305   1.000
    C155    C    0.54448   0.98603   0.09290   1.000
    C156    C    0.40982   0.50352   0.97681   1.000
    C157    C    0.40984   0.00000   0.97689   1.000
    C158    C    0.90981   0.50351   0.97681   1.000
    C159    C    0.90983   0.00000   0.97690   1.000
    C160    C    0.00216   0.31057   0.09210   1.000
    C161    C    0.00207   0.81039   0.09243   1.000
    C162    C    0.50215   0.31057   0.09209   1.000
    C163    C    0.50206   0.81038   0.09243   1.000
    C164    C    0.07863   0.23479   0.97706   1.000
    C165    C    0.07855   0.73461   0.97739   1.000
    C166    C    0.57862   0.23479   0.97705   1.000
    C167    C    0.57853   0.73461   0.97739   1.000
    C168    C    0.08109   0.29567   0.06985   1.000
    C169    C    0.08100   0.79549   0.07018   1.000
    C170    C    0.58107   0.29567   0.06985   1.000
    C171    C    0.58099   0.79549   0.07019   1.000
    C172    C    0.16724   0.34553   0.14154   1.000
    C173    C    0.16713   0.84539   0.14186   1.000
    C174    C    0.66723   0.34553   0.14154   1.000
    C175    C    0.66711   0.84540   0.14185   1.000
    C176    C    0.10328   0.33816   0.55011   1.000
    C177    C    0.10357   0.83836   0.55048   1.000
    C178    C    0.60328   0.33816   0.55011   1.000
    C179    C    0.60357   0.83836   0.55048   1.000
    C180    C    0.19199   0.33949   0.55894   1.000
    C181    C    0.19233   0.83977   0.55954   1.000
    C182    C    0.69198   0.33950   0.55894   1.000
    C183    C    0.69232   0.83977   0.55955   1.000
    C184    C    0.17597   0.45360   0.64460   1.000
    C185    C    0.17611   0.95386   0.64494   1.000
    C186    C    0.67597   0.45360   0.64467   1.000
    C187    C    0.67610   0.95386   0.64494   1.000
    C188    C    0.08726   0.18919   0.55835   1.000
    C189    C    0.08755   0.68931   0.55867   1.000
    C190    C    0.58725   0.18919   0.55835   1.000
    C191    C    0.58754   0.68931   0.55868   1.000
    C192    C    0.17145   0.18611   0.54925   1.000
    C193    C    0.17183   0.68637   0.54985   1.000
    C194    C    0.67144   0.18611   0.54925   1.000
    C195    C    0.67182   0.68637   0.54985   1.000
    C196    C    0.14641   0.11739   0.64300   1.000
    C197    C    0.14660   0.61738   0.64375   1.000
    C198    C    0.64641   0.11739   0.64360   1.000
    C199    C    0.64659   0.61738   0.64375   1.000
    C200    C    0.39642   0.16162   0.44957   1.000
    C201    C    0.39671   0.66182   0.44994   1.000
    C202    C    0.89641   0.16162   0.44957   1.000
    C203    C    0.89670   0.66182   0.44994   1.000
    C204    C    0.30766   0.16021   0.44049   1.000
    C205    C    0.30800   0.66048   0.44109   1.000
    C206    C    0.80765   0.16021   0.44049   1.000
    C207    C    0.80799   0.66048   0.44109   1.000
    C208    C    0.32389   0.04612   0.35510   1.000
    C209    C    0.32403   0.54638   0.35537   1.000
    C210    C    0.82388   0.04612   0.35510   1.000
    C211    C    0.82402   0.54638   0.35537   1.000
    C212    C    0.41245   0.31068   0.44138   1.000
    C213    C    0.41274   0.81079   0.44171   1.000
    C214    C    0.91244   0.31067   0.44138   1.000
    C215    C    0.91272   0.81079   0.44170   1.000
    C216    C    0.32816   0.31361   0.45018   1.000
    C217    C    0.32854   0.81387   0.45079   1.000
    C218    C    0.82815   0.31361   0.45018   1.000
    C219    C    0.82853   0.81386   0.45078   1.000
    C220    C    0.35341   0.38261   0.35630   1.000
    C221    C    0.35359   0.88260   0.35645   1.000
    C222    C    0.85339   0.38260   0.35629   1.000
    C223    C    0.85358   0.88259   0.35644   1.000
    C224    C    0.05602   0.03792   0.77195   1.000
    C225    C    0.05597   0.53776   0.77182   1.000
    C226    C    0.55601   0.03792   0.77195   1.000
    C227    C    0.55597   0.53776   0.77182   1.000
    C228    C    0.17856   0.02444   0.88287   1.000
    C229    C    0.17850   0.52422   0.88269   1.000
    C230    C    0.67855   0.02444   0.88287   1.000
    C231    C    0.67849   0.52422   0.88270   1.000
    C232    C    0.32968   0.09812   0.77315   1.000
    C233    C    0.32958   0.59793   0.77349   1.000
    C234    C    0.82968   0.09812   0.77315   1.000
    C235    C    0.82958   0.59793   0.77349   1.000
    C236    C    0.26257   0.16733   0.88278   1.000
    C237    C    0.26245   0.66725   0.88297   1.000
    C238    C    0.76257   0.16732   0.88279   1.000
    C239    C    0.76244   0.66725   0.88290   1.000
    C240    C    0.44402   0.46222   0.22820   1.000
    C241    C    0.44397   0.96205   0.22807   1.000
    C242    C    0.94401   0.46222   0.22820   1.000
    C243    C    0.94396   0.96206   0.22807   1.000
    C244    C    0.32149   0.47578   0.11734   1.000
    C245    C    0.32144   0.97556   0.11716   1.000
    C246    C    0.82149   0.47578   0.11734   1.000
    C247    C    0.82143   0.97556   0.11716   1.000
    C248    C    0.17042   0.40205   0.22653   1.000
    C249    C    0.17032   0.90187   0.22688   1.000
    C250    C    0.67041   0.40205   0.22653   1.000
    C251    C    0.67031   0.90187   0.22688   1.000
    C252    C    0.23757   0.33274   0.11706   1.000
    C253    C    0.23744   0.83266   0.11726   1.000
    C254    C    0.73756   0.33274   0.11705   1.000
    C255    C    0.73743   0.83266   0.11725   1.000
    O256    O    0.39058   0.27094   0.03071   1.000
    O257    O    0.46181   0.28798   0.05736   1.000
    O258    O    0.42024   0.23494   0.97621   1.000
    O259    O    0.89058   0.27094   0.03071   1.000
    O260    O    0.96181   0.28798   0.05736   1.000
    O261    O    0.92023   0.23494   0.97623   1.000
    O262    O    0.39049   0.77076   0.03103   1.000
    O263    O    0.46172   0.78779   0.05769   1.000
    O264    O    0.42015   0.73476   0.97656   1.000
    O265    O    0.89049   0.77076   0.03103   1.000
    O266    O    0.96172   0.78779   0.05769   1.000
    O267    O    0.92015   0.73476   0.97653   1.000
    O268    O    0.12514   0.99497   0.03134   1.000
    O269    O    0.06732   0.99121   0.05802   1.000
    O270    O    0.06795   0.00344   0.97642   1.000
    O271    O    0.62514   0.99497   0.03134   1.000
    O272    O    0.56731   0.99121   0.05802   1.000
    O273    O    0.56794   0.00344   0.97643   1.000
    O274    O    0.12518   0.49510   0.03144   1.000
    O275    O    0.06736   0.49135   0.05812   1.000
    O276    O    0.06795   0.50345   0.97642   1.000
    O277    O    0.62517   0.49510   0.03111   1.000
    O278    O    0.56735   0.49135   0.05813   1.000
    O279    O    0.56794   0.50344   0.97643   1.000
    O280    O    0.54161   0.30312   0.08097   1.000
    O281    O    0.62415   0.32060   0.10569   1.000
    O282    O    0.57985   0.26523   0.02345   1.000
    O283    O    0.04162   0.30312   0.08098   1.000
    O284    O    0.12416   0.32060   0.10569   1.000
    O285    O    0.07986   0.26523   0.02345   1.000
    O286    O    0.04154   0.80294   0.08131   1.000
    O287    O    0.12406   0.82044   0.10602   1.000
    O288    O    0.07977   0.76505   0.02378   1.000
    O289    O    0.54152   0.80294   0.08131   1.000
    O290    O    0.62405   0.82044   0.10602   1.000
    O291    O    0.57976   0.76505   0.02379   1.000
    O292    O    0.49937   0.98776   0.08160   1.000
    O293    O    0.42928   0.98250   0.10634   1.000
    O294    O    0.43205   0.99475   0.02359   1.000
    O295    O    0.99937   0.98777   0.08161   1.000
    O296    O    0.92927   0.98251   0.10635   1.000
    O297    O    0.93204   0.99475   0.02361   1.000
    O298    O    0.99940   0.48790   0.08171   1.000
    O299    O    0.92931   0.48263   0.10644   1.000
    O300    O    0.93204   0.49655   0.02359   1.000
    O301    O    0.49940   0.48790   0.08172   1.000
    O302    O    0.42932   0.48263   0.10645   1.000
    O303    O    0.43205   0.49655   0.02360   1.000
    O304    O    0.50324   0.33476   0.12730   1.000
    O305    O    0.00325   0.33476   0.12731   1.000
    O306    O    0.00317   0.83459   0.12763   1.000
    O307    O    0.50316   0.83458   0.12763   1.000
    O308    O    0.56116   0.97954   0.12831   1.000
    O309    O    0.06117   0.97954   0.12831   1.000
    O310    O    0.56123   0.47979   0.12852   1.000
    O311    O    0.06124   0.47978   0.12852   1.000
    O312    O    0.70239   0.33913   0.12929   1.000
    O313    O    0.77364   0.38419   0.17890   1.000
    O314    O    0.20240   0.33913   0.12930   1.000
    O315    O    0.27365   0.38419   0.17891   1.000
    O316    O    0.36287   0.97554   0.12977   1.000
    O317    O    0.31561   0.95548   0.17891   1.000
    O318    O    0.86287   0.97554   0.12977   1.000
    O319    O    0.81560   0.95548   0.17891   1.000
    O320    O    0.70227   0.83903   0.12955   1.000
    O321    O    0.77360   0.88403   0.17896   1.000
    O322    O    0.20229   0.83903   0.12956   1.000
    O323    O    0.27361   0.88403   0.17896   1.000
    O324    O    0.36293   0.47573   0.12992   1.000
    O325    O    0.31562   0.45571   0.17904   1.000
    O326    O    0.86292   0.47573   0.12992   1.000
    O327    O    0.81561   0.45571   0.17904   1.000
    O328    O    0.16883   0.37379   0.18403   1.000
    O329    O    0.66882   0.37379   0.18403   1.000
    O330    O    0.66871   0.87363   0.18437   1.000
    O331    O    0.16872   0.87363   0.18437   1.000
    O332    O    0.42414   0.96879   0.18523   1.000
    O333    O    0.92413   0.96878   0.18523   1.000
    O334    O    0.92418   0.46895   0.18535   1.000
    O335    O    0.42419   0.46895   0.18535   1.000
    O336    O    0.24008   0.41885   0.23364   1.000
    O337    O    0.74007   0.41885   0.23364   1.000
    O338    O    0.74004   0.91864   0.23377   1.000
    O339    O    0.24005   0.91864   0.23377   1.000
    O340    O    0.87686   0.94873   0.23436   1.000
    O341    O    0.37688   0.94873   0.23437   1.000
    O342    O    0.87687   0.44893   0.23447   1.000
    O343    O    0.37688   0.44893   0.23447   1.000
    O344    O    0.81683   0.99076   0.29788   1.000
    O345    O    0.83167   0.90900   0.29855   1.000
    O346    O    0.31684   0.99076   0.29789   1.000
    O347    O    0.33169   0.90900   0.29856   1.000
    O348    O    0.31689   0.49101   0.29806   1.000
    O349    O    0.33157   0.40913   0.29852   1.000
    O350    O    0.81687   0.49101   0.29806   1.000
    O351    O    0.83156   0.40912   0.29852   1.000
    O352    O    0.29542   0.06802   0.36917   1.000
    O353    O    0.36330   0.06919   0.37604   1.000
    O354    O    0.79541   0.06802   0.36917   1.000
    O355    O    0.86329   0.06919   0.37604   1.000
    O356    O    0.29561   0.56831   0.36957   1.000
    O357    O    0.36345   0.56942   0.37627   1.000
    O358    O    0.79560   0.56830   0.36957   1.000
    O359    O    0.86344   0.56942   0.37627   1.000
    O360    O    0.88895   0.36769   0.37038   1.000
    O361    O    0.82445   0.36980   0.37704   1.000
    O362    O    0.38896   0.36769   0.37039   1.000
    O363    O    0.32447   0.36981   0.37705   1.000
    O364    O    0.88913   0.86766   0.37047   1.000
    O365    O    0.82470   0.86989   0.37736   1.000
    O366    O    0.38914   0.86766   0.37050   1.000
    O367    O    0.32472   0.86989   0.37737   1.000
    O368    O    0.23168   0.08032   0.37256   1.000
    O369    O    0.73168   0.08032   0.37256   1.000
    O370    O    0.23193   0.58065   0.37316   1.000
    O371    O    0.73192   0.58065   0.37317   1.000
    O372    O    0.95457   0.85706   0.37385   1.000
    O373    O    0.45458   0.85707   0.37389   1.000
    O374    O    0.95444   0.35718   0.37395   1.000
    O375    O    0.45445   0.35718   0.37396   1.000
    O376    O    0.78729   0.12507   0.41186   1.000
    O377    O    0.28730   0.12507   0.41186   1.000
    O378    O    0.78759   0.62536   0.41242   1.000
    O379    O    0.28759   0.62536   0.41242   1.000
    O380    O    0.91847   0.33172   0.41292   1.000
    O381    O    0.41848   0.33172   0.41293   1.000
    O382    O    0.91870   0.83176   0.41310   1.000
    O383    O    0.41871   0.83176   0.41312   1.000
    O384    O    0.93311   0.58355   0.39177   1.000
    O385    O    0.43312   0.58356   0.39178   1.000
    O386    O    0.93297   0.08338   0.39170   1.000
    O387    O    0.43298   0.08338   0.39170   1.000
    O388    O    0.76255   0.36322   0.39243   1.000
    O389    O    0.26256   0.36323   0.39244   1.000
    O390    O    0.76289   0.86344   0.39300   1.000
    O391    O    0.26290   0.86345   0.39301   1.000
    O392    O    0.89955   0.12694   0.42328   1.000
    O393    O    0.39956   0.12695   0.42328   1.000
    O394    O    0.89978   0.62715   0.42355   1.000
    O395    O    0.39979   0.62715   0.42355   1.000
    O396    O    0.81183   0.33530   0.42399   1.000
    O397    O    0.31184   0.33531   0.42399   1.000
    O398    O    0.81218   0.83552   0.42453   1.000
    O399    O    0.31219   0.83553   0.42454   1.000
    O400    O    0.85203   0.16091   0.44503   1.000
    O401    O    0.77872   0.20501   0.47006   1.000
    O402    O    0.35204   0.16091   0.44503   1.000
    O403    O    0.27873   0.20501   0.47006   1.000
    O404    O    0.85235   0.66115   0.44551   1.000
    O405    O    0.77908   0.70532   0.47075   1.000
    O406    O    0.35236   0.66115   0.44551   1.000
    O407    O    0.27909   0.70532   0.47074   1.000
    O408    O    0.87029   0.31214   0.44578   1.000
    O409    O    0.95614   0.28029   0.47059   1.000
    O410    O    0.37031   0.31214   0.44578   1.000
    O411    O    0.45614   0.28029   0.47059   1.000
    O412    O    0.87063   0.81233   0.44624   1.000
    O413    O    0.95644   0.78044   0.47098   1.000
    O414    O    0.37064   0.81233   0.44625   1.000
    O415    O    0.45644   0.78044   0.47095   1.000
    O416    O    0.44813   0.20576   0.47469   1.000
    O417    O    0.94813   0.20576   0.47468   1.000
    O418    O    0.44843   0.70595   0.47507   1.000
    O419    O    0.94843   0.70595   0.47510   1.000
    O420    O    0.78897   0.28171   0.47490   1.000
    O421    O    0.28898   0.28172   0.47490   1.000
    O422    O    0.78935   0.78201   0.47559   1.000
    O423    O    0.28936   0.78201   0.47559   1.000
    O424    O    0.21063   0.21797   0.52444   1.000
    O425    O    0.22090   0.29466   0.52928   1.000
    O426    O    0.71062   0.21797   0.52444   1.000
    O427    O    0.72089   0.29466   0.52928   1.000
    O428    O    0.05156   0.29403   0.52495   1.000
    O429    O    0.04355   0.21955   0.52908   1.000
    O430    O    0.55156   0.29403   0.52496   1.000
    O431    O    0.54355   0.21955   0.52908   1.000
    O432    O    0.55186   0.79423   0.52534   1.000
    O433    O    0.54384   0.71970   0.52944   1.000
    O434    O    0.05186   0.79422   0.52537   1.000
    O435    O    0.04385   0.71970   0.52946   1.000
    O436    O    0.21101   0.71826   0.52512   1.000
    O437    O    0.22126   0.79496   0.52997   1.000
    O438    O    0.71100   0.71826   0.52513   1.000
    O439    O    0.72125   0.79496   0.52998   1.000
    O440    O    0.12935   0.18765   0.55380   1.000
    O441    O    0.18780   0.16445   0.57549   1.000
    O442    O    0.62935   0.18765   0.55380   1.000
    O443    O    0.68779   0.16445   0.57547   1.000
    O444    O    0.12969   0.68784   0.55426   1.000
    O445    O    0.18815   0.66467   0.57604   1.000
    O446    O    0.62968   0.68784   0.55426   1.000
    O447    O    0.68814   0.66467   0.57604   1.000
    O448    O    0.14764   0.33883   0.55452   1.000
    O449    O    0.10021   0.37284   0.57650   1.000
    O450    O    0.64763   0.33883   0.55452   1.000
    O451    O    0.60020   0.37284   0.57650   1.000
    O452    O    0.14795   0.83907   0.55501   1.000
    O453    O    0.10044   0.87304   0.57677   1.000
    O454    O    0.64795   0.83907   0.55501   1.000
    O455    O    0.60043   0.87304   0.57677   1.000
    O456    O    0.08129   0.16823   0.58693   1.000
    O457    O    0.58128   0.16823   0.58693   1.000
    O458    O    0.08152   0.66826   0.58712   1.000
    O459    O    0.58151   0.66826   0.58713   1.000
    O460    O    0.71239   0.37462   0.58760   1.000
    O461    O    0.21240   0.37462   0.58760   1.000
    O462    O    0.21269   0.87491   0.58817   1.000
    O463    O    0.71269   0.87491   0.58817   1.000
    O464    O    0.73709   0.13653   0.60699   1.000
    O465    O    0.67528   0.13009   0.62265   1.000
    O466    O    0.23709   0.13653   0.60701   1.000
    O467    O    0.17528   0.13009   0.62237   1.000
    O468    O    0.23743   0.63675   0.60757   1.000
    O469    O    0.17554   0.63017   0.62299   1.000
    O470    O    0.73742   0.63675   0.60757   1.000
    O471    O    0.67553   0.63017   0.62299   1.000
    O472    O    0.06688   0.41643   0.60828   1.000
    O473    O    0.13655   0.43056   0.62374   1.000
    O474    O    0.56688   0.41643   0.60829   1.000
    O475    O    0.63655   0.43056   0.62378   1.000
    O476    O    0.06702   0.91661   0.60835   1.000
    O477    O    0.13670   0.93079   0.62400   1.000
    O478    O    0.56702   0.91661   0.60835   1.000
    O479    O    0.63670   0.93079   0.62400   1.000
    O480    O    0.04543   0.14292   0.62617   1.000
    O481    O    0.11086   0.13232   0.62926   1.000
    O482    O    0.54542   0.14292   0.62618   1.000
    O483    O    0.61086   0.13233   0.62956   1.000
    O484    O    0.04556   0.64281   0.62611   1.000
    O485    O    0.11105   0.63230   0.62966   1.000
    O486    O    0.54555   0.64281   0.62609   1.000
    O487    O    0.61104   0.63230   0.62967   1.000
    O488    O    0.26806   0.41932   0.62685   1.000
    O489    O    0.20439   0.43167   0.63043   1.000
    O490    O    0.76806   0.41932   0.62683   1.000
    O491    O    0.70439   0.43168   0.63046   1.000
    O492    O    0.26831   0.91966   0.62746   1.000
    O493    O    0.20458   0.93196   0.63087   1.000
    O494    O    0.76831   0.91965   0.62746   1.000
    O495    O    0.70458   0.93196   0.63087   1.000
    O496    O    0.16832   0.09098   0.70119   1.000
    O497    O    0.66832   0.09098   0.70149   1.000
    O498    O    0.16844   0.59085   0.70152   1.000
    O499    O    0.66843   0.59086   0.70152   1.000
    O500    O    0.18313   0.50897   0.70194   1.000
    O501    O    0.68312   0.50897   0.70198   1.000
    O502    O    0.18317   0.00922   0.70216   1.000
    O503    O    0.68317   0.00922   0.70216   1.000
    O504    O    0.12313   0.55105   0.76555   1.000
    O505    O    0.25993   0.58113   0.76639   1.000
    O506    O    0.18439   0.54427   0.82099   1.000
    O507    O    0.22636   0.61579   0.82113   1.000
    O508    O    0.62312   0.55105   0.76555   1.000
    O509    O    0.75992   0.58114   0.76639   1.000
    O510    O    0.68438   0.54428   0.82099   1.000
    O511    O    0.72636   0.61579   0.82110   1.000
    O512    O    0.12313   0.05125   0.76567   1.000
    O513    O    0.25996   0.08135   0.76626   1.000
    O514    O    0.22640   0.11595   0.82108   1.000
    O515    O    0.18440   0.04451   0.82113   1.000
    O516    O    0.62312   0.05125   0.76567   1.000
    O517    O    0.75995   0.08135   0.76626   1.000
    O518    O    0.72640   0.11595   0.82108   1.000
    O519    O    0.68439   0.04451   0.82113   1.000
    O520    O    0.07580   0.53103   0.81466   1.000
    O521    O    0.57579   0.53103   0.81467   1.000
    O522    O    0.07585   0.03120   0.81480   1.000
    O523    O    0.57584   0.03120   0.81480   1.000
    O524    O    0.33128   0.12636   0.81565   1.000
    O525    O    0.83128   0.12636   0.81566   1.000
    O526    O    0.33118   0.62619   0.81598   1.000
    O527    O    0.83117   0.62620   0.81598   1.000
    O528    O    0.93875   0.52021   0.87149   1.000
    O529    O    0.43876   0.52021   0.87147   1.000
    O530    O    0.93882   0.02045   0.87170   1.000
    O531    O    0.43883   0.02045   0.87172   1.000
    O532    O    0.99684   0.16541   0.87238   1.000
    O533    O    0.49684   0.16541   0.87238   1.000
    O534    O    0.99675   0.66523   0.87270   1.000
    O535    O    0.49676   0.66523   0.87270   1.000
    O536    O    0.13707   0.52426   0.87010   1.000
    O537    O    0.07068   0.51736   0.89358   1.000
    O538    O    0.63706   0.52427   0.87011   1.000
    O539    O    0.57067   0.51736   0.89358   1.000
    O540    O    0.63711   0.02445   0.87026   1.000
    O541    O    0.57071   0.01749   0.89368   1.000
    O542    O    0.13712   0.02446   0.87026   1.000
    O543    O    0.07071   0.01749   0.89368   1.000
    O544    O    0.29773   0.16096   0.87047   1.000
    O545    O    0.37595   0.17955   0.89398   1.000
    O546    O    0.79772   0.16096   0.87048   1.000
    O547    O    0.87594   0.17955   0.89400   1.000
    O548    O    0.79761   0.66086   0.87069   1.000
    O549    O    0.87584   0.67939   0.89429   1.000
    O550    O    0.29761   0.66085   0.87072   1.000
    O551    O    0.37585   0.67939   0.89432   1.000
    O552    O    0.50059   0.51209   0.91827   1.000
    O553    O    0.43264   0.50865   0.94185   1.000
    O554    O    0.00059   0.51209   0.91832   1.000
    O555    O    0.93263   0.50864   0.94190   1.000
    O556    O    0.00062   0.01222   0.91840   1.000
    O557    O    0.93267   0.00698   0.94200   1.000
    O558    O    0.50063   0.01223   0.91843   1.000
    O559    O    0.43268   0.00698   0.94201   1.000
    O560    O    0.95847   0.19705   0.91870   1.000
    O561    O    0.03828   0.21220   0.94232   1.000
    O562    O    0.45848   0.19705   0.91869   1.000
    O563    O    0.53828   0.21220   0.94232   1.000
    O564    O    0.95838   0.69687   0.91901   1.000
    O565    O    0.03820   0.71202   0.94265   1.000
    O566    O    0.45839   0.69687   0.91904   1.000
    O567    O    0.53819   0.71201   0.94265   1.000
    O568    O    0.87485   0.00000   0.96845   1.000
    O569    O    0.37482   0.50490   0.96857   1.000
    O570    O    0.87481   0.50490   0.96857   1.000
    O571    O    0.37486   0.00000   0.96869   1.000
    O572    O    0.10952   0.22924   0.96898   1.000
    O573    O    0.60951   0.22923   0.96898   1.000
    O574    O    0.60942   0.72905   0.96931   1.000
    O575    O    0.10943   0.72906   0.96931   1.000
loop_
    _geom_bond_atom_site_label_1
    _geom_bond_atom_site_label_2
    _geom_bond_distance
    _geom_bond_site_symmetry_2
    _ccdc_geom_bond_type
    C116   O256      0.54515      .   S
    C44    O256      0.54515      .   S
    C116   O257      0.69619      .   S
    C162   O257      0.69619      .   S
    C116   O258      0.70276  1_554   S
    C120   O258      0.70276      .   S
    C118   O259      0.54515      .   S
    C46    O259      0.54515      .   S
    C118   O260      0.69629      .   S
    C160   O260      0.69629  1_455   S
    C118   O261      0.70263  1_554   S
    C122   O261      0.70263      .   S
    C117   O262      0.54514      .   S
    C45    O262      0.54514      .   S
    C117   O263      0.69618      .   S
    C163   O263      0.69618      .   S
    C117   O264      0.70262  1_554   S
    C121   O264      0.70262      .   S
    C119   O265      0.54514      .   S
    C47    O265      0.54514      .   S
    C119   O266      0.69628      .   S
    C161   O266      0.69628  1_455   S
    C119   O267      0.70287  1_554   S
    C123   O267      0.70287      .   S
    C108   O268      0.54515      .   S
    C36    O268      0.54515      .   S
    C108   O269      0.69620      .   S
    C153   O269      0.69620      .   S
    C108   O270      0.70261  1_564   S
    C100   O270      0.70261      .   S
    C110   O271      0.54515      .   S
    C38    O271      0.54515      .   S
    C110   O272      0.69624      .   S
    C155   O272      0.69624      .   S
    C110   O273      0.70256  1_564   S
    C102   O273      0.70256      .   S
    C109   O274      0.54514      .   S
    C37    O274      0.54514      .   S
    C109   O275      0.69632      .   S
    C152   O275      0.69632      .   S
    C109   O276      0.70244  1_554   S
    C101   O276      0.70244      .   S
    C111   O277      0.54541      .   S
    C39    O277      0.54541      .   S
    C111   O278      0.69618      .   S
    C154   O278      0.69618      .   S
    C111   O279      0.70254  1_554   S
    C103   O279      0.70254      .   S
    C170   O280      0.70214      .   S
    C162   O280      0.70214      .   S
    C170   O281      0.74557      .   S
    C174   O281      0.74557      .   S
    C170   O282      0.70262      .   S
    C166   O282      0.70262  1_556   S
    C168   O283      0.70217      .   S
    C160   O283      0.70217      .   S
    C168   O284      0.74557      .   S
    C172   O284      0.74557      .   S
    C168   O285      0.70257      .   S
    C164   O285      0.70257  1_556   S
    C169   O286      0.70216      .   S
    C161   O286      0.70216      .   S
    C169   O287      0.74557      .   S
    C173   O287      0.74557      .   S
    C169   O288      0.70259      .   S
    C165   O288      0.70259  1_556   S
    C171   O289      0.70213      .   S
    C163   O289      0.70213      .   S
    C171   O290      0.74557      .   S
    C175   O290      0.74557      .   S
    C171   O291      0.70262      .   S
    C167   O291      0.70262  1_556   S
    C149   O292      0.70211      .   S
    C155   O292      0.70211      .   S
    C149   O293      0.74577      .   S
    C145   O293      0.74577      .   S
    C149   O294      0.68384      .   S
    C157   O294      0.68384  1_546   S
    C151   O295      0.70226      .   S
    C153   O295      0.70226  1_455   S
    C151   O296      0.74572      .   S
    C147   O296      0.74572      .   S
    C151   O297      0.68385      .   S
    C159   O297      0.68385  1_546   S
    C150   O298      0.70225      .   S
    C152   O298      0.70225  1_455   S
    C150   O299      0.74558      .   S
    C146   O299      0.74558      .   S
    C150   O300      0.70257      .   S
    C158   O300      0.70257  1_556   S
    C148   O301      0.70212      .   S
    C154   O301      0.70212      .   S
    C148   O302      0.74565      .   S
    C144   O302      0.74565      .   S
    C148   O303      0.70260      .   S
    C156   O303      0.70260  1_556   S
    C162   O304      0.54469      .   S
    C74    O304      0.54469      .   S
    C160   O305      0.54469      .   S
    C72    O305      0.54469      .   S
    C161   O306      0.54467      .   S
    C73    O306      0.54467      .   S
    C163   O307      0.54468      .   S
    C75    O307      0.54468      .   S
    C155   O308      0.54463      .   S
    C67    O308      0.54463      .   S
    C153   O309      0.54465      .   S
    C65    O309      0.54465      .   S
    C154   O310      0.54463      .   S
    C66    O310      0.54463      .   S
    C152   O311      0.54462      .   S
    C64    O311      0.54462      .   S
    C254   O312      0.63756      .   S
    C174   O312      0.63756      .   S
    C254   O313      1.06651      .   S
    C6     O313      1.06651      .   S
    C252   O314      0.63755      .   S
    C172   O314      0.63755      .   S
    C252   O315      1.06649      .   S
    C4     O315      1.06649      .   S
    C245   O316      0.63823      .   S
    C145   O316      0.63823      .   S
    C245   O317      1.06002      .   S
    C5     O317      1.06002      .   S
    C247   O318      0.63823      .   S
    C147   O318      0.63823      .   S
    C247   O319      1.06001      .   S
    C7     O319      1.06001      .   S
    C255   O320      0.63768      .   S
    C175   O320      0.63768      .   S
    C255   O321      1.06515      .   S
    C7     O321      1.06515      .   S
    C253   O322      0.63768      .   S
    C173   O322      0.63768      .   S
    C253   O323      1.06516      .   S
    C5     O323      1.06516      .   S
    C244   O324      0.63827      .   S
    C144   O324      0.63827      .   S
    C244   O325      1.05949      .   S
    C4     O325      1.05949      .   S
    C246   O326      0.63828      .   S
    C146   O326      0.63828      .   S
    C246   O327      1.05950      .   S
    C6     O327      1.05950      .   S
    C172   O328      0.64563      .   S
    C248   O328      0.64563      .   S
    C174   O329      0.64564      .   S
    C250   O329      0.64564      .   S
    C175   O330      0.64550      .   S
    C251   O330      0.64550      .   S
    C173   O331      0.64551      .   S
    C249   O331      0.64551      .   S
    C145   O332      0.64487      .   S
    C241   O332      0.64487      .   S
    C147   O333      0.64483      .   S
    C243   O333      0.64483      .   S
    C146   O334      0.64491      .   S
    C242   O334      0.64491      .   S
    C144   O335      0.64482      .   S
    C240   O335      0.64482      .   S
    C248   O336      1.10322      .   S
    C4     O336      1.10322      .   S
    C250   O337      1.10321      .   S
    C6     O337      1.10321      .   S
    C251   O338      1.10506      .   S
    C7     O338      1.10506      .   S
    C249   O339      1.10506      .   S
    C5     O339      1.10506      .   S
    C243   O340      1.11440      .   S
    C7     O340      1.11440      .   S
    C241   O341      1.11438      .   S
    C5     O341      1.11438      .   S
    C242   O342      1.11480      .   S
    C6     O342      1.11480      .   S
    C240   O343      1.11480      .   S
    C4     O343      1.11480      .   S
    C7     O344      1.08168      .   S
    C210   O344      1.08168  1_545   S
    C7     O345      1.08091      .   S
    C223   O345      1.08091      .   S
    C5     O346      1.08167      .   S
    C208   O346      1.08167  1_545   S
    C5     O347      1.08089      .   S
    C221   O347      1.08089      .   S
    C4     O348      1.08201      .   S
    C209   O348      1.08201      .   S
    C4     O349      1.08115      .   S
    C220   O349      1.08115      .   S
    C6     O350      1.08198      .   S
    C211   O350      1.08198      .   S
    C6     O351      1.08113      .   S
    C222   O351      1.08113      .   S
    C208   O352      0.67373      .   S
    C132   O352      0.67373      .   S
    C208   O353      0.67378      .   S
    C128   O353      0.67378      .   S
    C210   O354      0.67373      .   S
    C134   O354      0.67373      .   S
    C210   O355      0.67378      .   S
    C130   O355      0.67378      .   S
    C209   O356      0.67374      .   S
    C133   O356      0.67374      .   S
    C209   O357      0.67379      .   S
    C129   O357      0.67379      .   S
    C211   O358      0.67373      .   S
    C135   O358      0.67373      .   S
    C211   O359      0.67379      .   S
    C131   O359      0.67379      .   S
    C222   O360      0.67375      .   S
    C138   O360      0.67375      .   S
    C222   O361      0.67376      .   S
    C142   O361      0.67376      .   S
    C220   O362      0.67375      .   S
    C136   O362      0.67375      .   S
    C220   O363      0.67376      .   S
    C140   O363      0.67376      .   S
    C223   O364      0.67371      .   S
    C139   O364      0.67371      .   S
    C223   O365      0.67375      .   S
    C143   O365      0.67375      .   S
    C221   O366      0.67375      .   S
    C137   O366      0.67375      .   S
    C221   O367      0.67377      .   S
    C141   O367      0.67377      .   S
    C52    O368      0.54254      .   S
    C132   O368      0.54254      .   S
    C54    O369      0.54255      .   S
    C134   O369      0.54255      .   S
    C53    O370      0.54253      .   S
    C133   O370      0.54253      .   S
    C55    O371      0.54254      .   S
    C135   O371      0.54254      .   S
    C59    O372      0.54252      .   S
    C139   O372      0.54252      .   S
    C57    O373      0.54249      .   S
    C137   O373      0.54249      .   S
    C58    O374      0.54250      .   S
    C138   O374      0.54250      .   S
    C56    O375      0.54250      .   S
    C136   O375      0.54250      .   S
    C134   O376      0.67168      .   S
    C206   O376      0.67168      .   S
    C132   O377      0.67167      .   S
    C204   O377      0.67167      .   S
    C135   O378      0.67168      .   S
    C207   O378      0.67168      .   S
    C133   O379      0.67168      .   S
    C205   O379      0.67168      .   S
    C138   O380      0.67169      .   S
    C214   O380      0.67169      .   S
    C136   O381      0.67164      .   S
    C212   O381      0.67164      .   S
    C139   O382      0.67181      .   S
    C215   O382      0.67181      .   S
    C137   O383      0.67166      .   S
    C213   O383      0.67166      .   S
    C51    O384      0.54245      .   S
    C131   O384      0.54245      .   S
    C49    O385      0.54243      .   S
    C129   O385      0.54243      .   S
    C50    O386      0.54243      .   S
    C130   O386      0.54243      .   S
    C48    O387      0.54242      .   S
    C128   O387      0.54242      .   S
    C62    O388      0.54241      .   S
    C142   O388      0.54241      .   S
    C60    O389      0.54240      .   S
    C140   O389      0.54240      .   S
    C63    O390      0.54239      .   S
    C143   O390      0.54239      .   S
    C61    O391      0.54241      .   S
    C141   O391      0.54241      .   S
    C130   O392      0.67006      .   S
    C202   O392      0.67006      .   S
    C128   O393      0.67005      .   S
    C200   O393      0.67005      .   S
    C131   O394      0.67006      .   S
    C203   O394      0.67006      .   S
    C129   O395      0.67006      .   S
    C201   O395      0.67006      .   S
    C142   O396      0.67005      .   S
    C218   O396      0.67005      .   S
    C140   O397      0.67001      .   S
    C216   O397      0.67001      .   S
    C143   O398      0.67006      .   S
    C219   O398      0.67006      .   S
    C141   O399      0.67005      .   S
    C217   O399      0.67005      .   S
    C206   O400      0.69367      .   S
    C202   O400      0.69367      .   S
    C206   O401      1.04159      .   S
    C14    O401      1.04159      .   S
    C204   O402      0.69367      .   S
    C200   O402      0.69367      .   S
    C204   O403      1.04158      .   S
    C12    O403      1.04158      .   S
    C207   O404      0.69365      .   S
    C203   O404      0.69365      .   S
    C207   O405      1.04208      .   S
    C15    O405      1.04208      .   S
    C205   O406      0.69366      .   S
    C201   O406      0.69366      .   S
    C205   O407      1.04207      .   S
    C13    O407      1.04207      .   S
    C214   O408      0.69369      .   S
    C218   O408      0.69369      .   S
    C214   O409      1.04240      .   S
    C8     O409      1.04240      .   S
    C212   O410      0.69369      .   S
    C216   O410      0.69369      .   S
    C212   O411      1.04234      .   S
    C10    O411      1.04234      .   S
    C215   O412      0.69369      .   S
    C219   O412      0.69369      .   S
    C215   O413      1.04236      .   S
    C9     O413      1.04236  1_455   S
    C213   O414      0.69369      .   S
    C217   O414      0.69369      .   S
    C213   O415      1.04209      .   S
    C11    O415      1.04209      .   S
    C200   O416      1.04269      .   S
    C10    O416      1.04269      .   S
    C202   O417      1.04278      .   S
    C8     O417      1.04278      .   S
    C201   O418      1.04260      .   S
    C11    O418      1.04260      .   S
    C203   O419      1.04262      .   S
    C9     O419      1.04262  1_455   S
    C218   O420      1.04277      .   S
    C14    O420      1.04277      .   S
    C216   O421      1.04281      .   S
    C12    O421      1.04281      .   S
    C219   O422      1.04312      .   S
    C15    O422      1.04312      .   S
    C217   O423      1.04306      .   S
    C13    O423      1.04306      .   S
    C12    O424      1.04307      .   S
    C192   O424      1.04307      .   S
    C12    O425      1.04207      .   S
    C180   O425      1.04207      .   S
    C14    O426      1.04305      .   S
    C194   O426      1.04305      .   S
    C14    O427      1.04207      .   S
    C182   O427      1.04207      .   S
    C8     O428      1.04254  1_655   S
    C176   O428      1.04254      .   S
    C8     O429      1.04227  1_655   S
    C188   O429      1.04227      .   S
    C10    O430      1.04255      .   S
    C178   O430      1.04255      .   S
    C10    O431      1.04225      .   S
    C190   O431      1.04225      .   S
    C11    O432      1.04263      .   S
    C179   O432      1.04263      .   S
    C11    O433      1.04250      .   S
    C191   O433      1.04250      .   S
    C9     O434      1.04270      .   S
    C177   O434      1.04270      .   S
    C9     O435      1.04232      .   S
    C189   O435      1.04232      .   S
    C13    O436      1.04276      .   S
    C193   O436      1.04276      .   S
    C13    O437      1.04159      .   S
    C181   O437      1.04159      .   S
    C15    O438      1.04272      .   S
    C195   O438      1.04272      .   S
    C15    O439      1.04158      .   S
    C183   O439      1.04158      .   S
    C192   O440      0.69369      .   S
    C188   O440      0.69369      .   S
    C192   O441      0.67003      .   S
    C92    O441      0.67003      .   S
    C194   O442      0.69369      .   S
    C190   O442      0.69369      .   S
    C194   O443      0.66986      .   S
    C94    O443      0.66986      .   S
    C193   O444      0.69369      .   S
    C189   O444      0.69369      .   S
    C193   O445      0.67004      .   S
    C93    O445      0.67004      .   S
    C195   O446      0.69371      .   S
    C191   O446      0.69371      .   S
    C195   O447      0.67004      .   S
    C95    O447      0.67004      .   S
    C176   O448      0.69366      .   S
    C180   O448      0.69366      .   S
    C176   O449      0.67005      .   S
    C80    O449      0.67005      .   S
    C178   O450      0.69366      .   S
    C182   O450      0.69366      .   S
    C178   O451      0.67006      .   S
    C82    O451      0.67006      .   S
    C177   O452      0.69368      .   S
    C181   O452      0.69368      .   S
    C177   O453      0.67005      .   S
    C81    O453      0.67005      .   S
    C179   O454      0.69367      .   S
    C183   O454      0.69367      .   S
    C179   O455      0.67005      .   S
    C83    O455      0.67005      .   S
    C188   O456      0.67163      .   S
    C88    O456      0.67163      .   S
    C190   O457      0.67162      .   S
    C90    O457      0.67162      .   S
    C189   O458      0.67166      .   S
    C89    O458      0.67166      .   S
    C191   O459      0.67166      .   S
    C91    O459      0.67166      .   S
    C182   O460      0.67168      .   S
    C86    O460      0.67168      .   S
    C180   O461      0.67167      .   S
    C84    O461      0.67167      .   S
    C181   O462      0.67167      .   S
    C85    O462      0.67167      .   S
    C183   O463      0.67167      .   S
    C87    O463      0.67167      .   S
    C94    O464      0.54238      .   S
    C30    O464      0.54238      .   S
    C94    O465      0.67397      .   S
    C198   O465      0.67397      .   S
    C92    O466      0.54240      .   S
    C28    O466      0.54240      .   S
    C92    O467      0.67083      .   S
    C196   O467      0.67083      .   S
    C93    O468      0.54240      .   S
    C29    O468      0.54240      .   S
    C93    O469      0.67378      .   S
    C197   O469      0.67378      .   S
    C95    O470      0.54240      .   S
    C31    O470      0.54240      .   S
    C95    O471      0.67377      .   S
    C199   O471      0.67377      .   S
    C80    O472      0.54245      .   S
    C16    O472      0.54245      .   S
    C80    O473      0.67381      .   S
    C184   O473      0.67381      .   S
    C82    O474      0.54244      .   S
    C18    O474      0.54244      .   S
    C82    O475      0.67380      .   S
    C186   O475      0.67380      .   S
    C81    O476      0.54243      .   S
    C17    O476      0.54243      .   S
    C81    O477      0.67378      .   S
    C185   O477      0.67378      .   S
    C83    O478      0.54243      .   S
    C19    O478      0.54243      .   S
    C83    O479      0.67378      .   S
    C187   O479      0.67378      .   S
    C88    O480      0.54252      .   S
    C24    O480      0.54252      .   S
    C88    O481      0.67293      .   S
    C196   O481      0.67293      .   S
    C90    O482      0.54255      .   S
    C26    O482      0.54255      .   S
    C90    O483      0.67377      .   S
    C198   O483      0.67377      .   S
    C89    O484      0.54253      .   S
    C25    O484      0.54253      .   S
    C89    O485      0.67376      .   S
    C197   O485      0.67376      .   S
    C91    O486      0.54233      .   S
    C27    O486      0.54233      .   S
    C91    O487      0.67374      .   S
    C199   O487      0.67374      .   S
    C84    O488      0.54253      .   S
    C20    O488      0.54253      .   S
    C84    O489      0.67362      .   S
    C184   O489      0.67362      .   S
    C86    O490      0.54256      .   S
    C22    O490      0.54256      .   S
    C86    O491      0.67373      .   S
    C186   O491      0.67373      .   S
    C85    O492      0.54254      .   S
    C21    O492      0.54254      .   S
    C85    O493      0.67373      .   S
    C185   O493      0.67373      .   S
    C87    O494      0.54255      .   S
    C23    O494      0.54255      .   S
    C87    O495      0.67373      .   S
    C187   O495      0.67373      .   S
    C196   O496      1.08417      .   S
    C0     O496      1.08417      .   S
    C198   O497      1.08094      .   S
    C2     O497      1.08094      .   S
    C197   O498      1.08115      .   S
    C1     O498      1.08115      .   S
    C199   O499      1.08112      .   S
    C3     O499      1.08112      .   S
    C184   O500      1.08213      .   S
    C1     O500      1.08213      .   S
    C186   O501      1.08200      .   S
    C3     O501      1.08200      .   S
    C185   O502      1.08169  1_565   S
    C0     O502      1.08169      .   S
    C187   O503      1.08166  1_565   S
    C2     O503      1.08166      .   S
    C1     O504      1.11495      .   S
    C225   O504      1.11495      .   S
    C1     O505      1.10319      .   S
    C233   O505      1.10319      .   S
    C1     O506      1.05936      .   S
    C229   O506      1.05936      .   S
    C1     O507      1.06653      .   S
    C237   O507      1.06653      .   S
    C3     O508      1.11496      .   S
    C227   O508      1.11496      .   S
    C3     O509      1.10320      .   S
    C235   O509      1.10320      .   S
    C3     O510      1.05943      .   S
    C231   O510      1.05943      .   S
    C3     O511      1.06636      .   S
    C239   O511      1.06636      .   S
    C0     O512      1.11452      .   S
    C224   O512      1.11452      .   S
    C0     O513      1.10503      .   S
    C232   O513      1.10503      .   S
    C0     O514      1.06519      .   S
    C236   O514      1.06519      .   S
    C0     O515      1.05985      .   S
    C228   O515      1.05985      .   S
    C2     O516      1.11453      .   S
    C226   O516      1.11453      .   S
    C2     O517      1.10502      .   S
    C234   O517      1.10502      .   S
    C2     O518      1.06520      .   S
    C238   O518      1.06520      .   S
    C2     O519      1.05986      .   S
    C230   O519      1.05986      .   S
    C225   O520      0.64479      .   S
    C97    O520      0.64479      .   S
    C227   O521      0.64481      .   S
    C99    O521      0.64481      .   S
    C224   O522      0.64482      .   S
    C96    O522      0.64482      .   S
    C226   O523      0.64486      .   S
    C98    O523      0.64486      .   S
    C232   O524      0.64547      .   S
    C124   O524      0.64547      .   S
    C234   O525      0.64547      .   S
    C126   O525      0.64547      .   S
    C233   O526      0.64564      .   S
    C125   O526      0.64564      .   S
    C235   O527      0.64565      .   S
    C127   O527      0.64565      .   S
    C35    O528      0.54489      .   S
    C107   O528      0.54489      .   S
    C33    O529      0.54417      .   S
    C105   O529      0.54417      .   S
    C34    O530      0.54447      .   S
    C106   O530      0.54447      .   S
    C32    O531      0.54468      .   S
    C104   O531      0.54468      .   S
    C42    O532      0.54465      .   S
    C114   O532      0.54465      .   S
    C40    O533      0.54465      .   S
    C112   O533      0.54465      .   S
    C43    O534      0.54470      .   S
    C115   O534      0.54470      .   S
    C41    O535      0.54470      .   S
    C113   O535      0.54470      .   S
    C97    O536      0.63828      .   S
    C229   O536      0.63828      .   S
    C97    O537      0.74567      .   S
    C101   O537      0.74567      .   S
    C99    O538      0.63828      .   S
    C231   O538      0.63828      .   S
    C99    O539      0.74567      .   S
    C103   O539      0.74567      .   S
    C98    O540      0.63824      .   S
    C230   O540      0.63824      .   S
    C98    O541      0.74568      .   S
    C102   O541      0.74568      .   S
    C96    O542      0.63825      .   S
    C228   O542      0.63825      .   S
    C96    O543      0.74569      .   S
    C100   O543      0.74569      .   S
    C124   O544      0.63770      .   S
    C236   O544      0.63770      .   S
    C124   O545      0.74554      .   S
    C120   O545      0.74554      .   S
    C126   O546      0.63770      .   S
    C238   O546      0.63770      .   S
    C126   O547      0.74557      .   S
    C122   O547      0.74557      .   S
    C127   O548      0.63734      .   S
    C239   O548      0.63734      .   S
    C127   O549      0.74549      .   S
    C123   O549      0.74549      .   S
    C125   O550      0.63755      .   S
    C237   O550      0.63755      .   S
    C125   O551      0.74558      .   S
    C121   O551      0.74558      .   S
    C105   O552      0.70209      .   S
    C103   O552      0.70209      .   S
    C105   O553      0.69664      .   S
    C156   O553      0.69664      .   S
    C107   O554      0.70225  1_655   S
    C101   O554      0.70225      .   S
    C107   O555      0.69614      .   S
    C158   O555      0.69614      .   S
    C106   O556      0.70225  1_655   S
    C100   O556      0.70225      .   S
    C106   O557      0.70902      .   S
    C159   O557      0.70902      .   S
    C104   O558      0.70212      .   S
    C102   O558      0.70212      .   S
    C104   O559      0.70874      .   S
    C157   O559      0.70874      .   S
    C114   O560      0.70215      .   S
    C122   O560      0.70215      .   S
    C114   O561      0.69629  1_655   S
    C164   O561      0.69629      .   S
    C112   O562      0.70206      .   S
    C120   O562      0.70206      .   S
    C112   O563      0.69619      .   S
    C166   O563      0.69619      .   S
    C115   O564      0.70198      .   S
    C123   O564      0.70198      .   S
    C115   O565      0.69629  1_655   S
    C165   O565      0.69629      .   S
    C113   O566      0.70214      .   S
    C121   O566      0.70214      .   S
    C113   O567      0.69619      .   S
    C167   O567      0.69619      .   S
    C71    O568      0.53985      .   S
    C159   O568      0.53985      .   S
    C68    O569      0.54515      .   S
    C156   O569      0.54515      .   S
    C70    O570      0.54514      .   S
    C158   O570      0.54514      .   S
    C69    O571      0.54008      .   S
    C157   O571      0.54008      .   S
    C76    O572      0.54517      .   S
    C164   O572      0.54517      .   S
    C78    O573      0.54515      .   S
    C166   O573      0.54515      .   S
    C79    O574      0.54515      .   S
    C167   O574      0.54515      .   S
    C77    O575      0.54515      .   S
    C165   O575      0.54515      .   S
