# CIF file generated by openbabel 2.4.90, see http://openbabel.sf.net
data_I
_chemical_name_common ''
_cell_length_a 15.976
_cell_length_b 19.736
_cell_length_c 13.545
_cell_angle_alpha 109.661
_cell_angle_beta 105.44
_cell_angle_gamma 94.817
_space_group_name_H-M_alt 'P 1'
_space_group_name_Hall 'P 1'
loop_
    _symmetry_equiv_pos_as_xyz
    x,y,z
loop_
    _atom_site_label
    _atom_site_type_symbol
    _atom_site_fract_x
    _atom_site_fract_y
    _atom_site_fract_z
    _atom_site_occupancy
    Zr0     Zr   0.19023   0.06458   0.75938   1.000
    Zr1     Zr   0.19028   0.56433   0.75929   1.000
    Zr2     Zr   0.69023   0.06458   0.75938   1.000
    Zr3     Zr   0.69027   0.56434   0.75929   1.000
    Zr4     Zr   0.30974   0.43564   0.24075   1.000
    Zr5     Zr   0.30978   0.93540   0.24067   1.000
    Zr6     Zr   0.80973   0.43565   0.24075   1.000
    Zr7     Zr   0.80977   0.93540   0.24066   1.000
    Zr8     Zr   0.99985   0.24990   0.49980   1.000
    Zr9     Zr   0.00015   0.75008   0.50026   1.000
    Zr10    Zr   0.49984   0.24990   0.49981   1.000
    Zr11    Zr   0.50015   0.75009   0.50020   1.000
    Zr12    Zr   0.24980   0.24982   0.49963   1.000
    Zr13    Zr   0.25018   0.75016   0.50040   1.000
    Zr14    Zr   0.74979   0.24982   0.49963   1.000
    Zr15    Zr   0.75017   0.75015   0.50041   1.000
    Zr16    Zr   0.03663   0.42535   0.61367   1.000
    Zr17    Zr   0.03674   0.92550   0.61364   1.000
    Zr18    Zr   0.53663   0.42535   0.61368   1.000
    Zr19    Zr   0.53673   0.92551   0.61364   1.000
    Zr20    Zr   0.30331   0.42890   0.63743   1.000
    Zr21    Zr   0.30356   0.92926   0.63812   1.000
    Zr22    Zr   0.80331   0.42890   0.63740   1.000
    Zr23    Zr   0.80356   0.92926   0.63812   1.000
    Zr24    Zr   0.01554   0.13858   0.63683   1.000
    Zr25    Zr   0.01562   0.63840   0.63664   1.000
    Zr26    Zr   0.51553   0.13858   0.63684   1.000
    Zr27    Zr   0.51561   0.63840   0.63660   1.000
    Zr28    Zr   0.27004   0.13027   0.61228   1.000
    Zr29    Zr   0.27040   0.63052   0.61292   1.000
    Zr30    Zr   0.77003   0.13027   0.61228   1.000
    Zr31    Zr   0.77039   0.63052   0.61292   1.000
    Zr32    Zr   0.46327   0.07449   0.38643   1.000
    Zr33    Zr   0.46337   0.57464   0.38640   1.000
    Zr34    Zr   0.96326   0.07448   0.38642   1.000
    Zr35    Zr   0.96336   0.57464   0.38639   1.000
    Zr36    Zr   0.19643   0.07072   0.36189   1.000
    Zr37    Zr   0.19668   0.57108   0.36257   1.000
    Zr38    Zr   0.69642   0.07071   0.36190   1.000
    Zr39    Zr   0.69667   0.57107   0.36258   1.000
    Zr40    Zr   0.48439   0.36159   0.36344   1.000
    Zr41    Zr   0.48447   0.86141   0.36325   1.000
    Zr42    Zr   0.98438   0.36159   0.36343   1.000
    Zr43    Zr   0.98446   0.86140   0.36320   1.000
    Zr44    Zr   0.22960   0.36945   0.38709   1.000
    Zr45    Zr   0.22995   0.86971   0.38774   1.000
    Zr46    Zr   0.72958   0.36945   0.38708   1.000
    Zr47    Zr   0.72994   0.86970   0.38773   1.000
    Zr48    Zr   0.09713   0.40751   0.60289   1.000
    Zr49    Zr   0.09730   0.90772   0.60307   1.000
    Zr50    Zr   0.59712   0.40751   0.60290   1.000
    Zr51    Zr   0.59730   0.90772   0.60307   1.000
    Zr52    Zr   0.23281   0.40974   0.61626   1.000
    Zr53    Zr   0.23305   0.91005   0.61680   1.000
    Zr54    Zr   0.73281   0.40975   0.61626   1.000
    Zr55    Zr   0.73305   0.91005   0.61680   1.000
    Zr56    Zr   0.07531   0.14726   0.61552   1.000
    Zr57    Zr   0.07549   0.64722   0.61558   1.000
    Zr58    Zr   0.57531   0.14726   0.61552   1.000
    Zr59    Zr   0.57548   0.64722   0.61559   1.000
    Zr60    Zr   0.20415   0.14279   0.60174   1.000
    Zr61    Zr   0.20447   0.64297   0.60223   1.000
    Zr62    Zr   0.70415   0.14279   0.60170   1.000
    Zr63    Zr   0.70446   0.64297   0.60223   1.000
    Zr64    Zr   0.09568   0.02448   0.85765   1.000
    Zr65    Zr   0.09563   0.52431   0.85751   1.000
    Zr66    Zr   0.59567   0.02447   0.85765   1.000
    Zr67    Zr   0.59562   0.52431   0.85752   1.000
    Zr68    Zr   0.33288   0.15460   0.85816   1.000
    Zr69    Zr   0.33277   0.65446   0.85848   1.000
    Zr70    Zr   0.83288   0.15460   0.85817   1.000
    Zr71    Zr   0.83277   0.65446   0.85848   1.000
    Zr72    Zr   0.40270   0.09227   0.39698   1.000
    Zr73    Zr   0.40287   0.59247   0.39716   1.000
    Zr74    Zr   0.90269   0.09227   0.39698   1.000
    Zr75    Zr   0.90286   0.59247   0.39716   1.000
    Zr76    Zr   0.26694   0.08993   0.38323   1.000
    Zr77    Zr   0.26719   0.59023   0.38376   1.000
    Zr78    Zr   0.76693   0.08992   0.38323   1.000
    Zr79    Zr   0.76718   0.59023   0.38376   1.000
    Zr80    Zr   0.42452   0.35277   0.38448   1.000
    Zr81    Zr   0.42469   0.85273   0.38454   1.000
    Zr82    Zr   0.92450   0.35277   0.38447   1.000
    Zr83    Zr   0.92468   0.85272   0.38450   1.000
    Zr84    Zr   0.29552   0.35701   0.39780   1.000
    Zr85    Zr   0.29584   0.85719   0.39829   1.000
    Zr86    Zr   0.79551   0.35700   0.39779   1.000
    Zr87    Zr   0.79583   0.85718   0.39828   1.000
    Zr88    Zr   0.40436   0.47568   0.14251   1.000
    Zr89    Zr   0.40431   0.97552   0.14238   1.000
    Zr90    Zr   0.90436   0.47568   0.14250   1.000
    Zr91    Zr   0.90430   0.97551   0.14238   1.000
    Zr92    Zr   0.16724   0.34553   0.14154   1.000
    Zr93    Zr   0.16713   0.84539   0.14186   1.000
    Zr94    Zr   0.66723   0.34553   0.14154   1.000
    Zr95    Zr   0.66711   0.84540   0.14185   1.000
    Zr96    Zr   0.10328   0.33816   0.55011   1.000
    Zr97    Zr   0.10357   0.83836   0.55048   1.000
    Zr98    Zr   0.60328   0.33816   0.55011   1.000
    Zr99    Zr   0.60357   0.83836   0.55048   1.000
    Zr100   Zr   0.19199   0.33949   0.55894   1.000
    Zr101   Zr   0.19233   0.83977   0.55954   1.000
    Zr102   Zr   0.69198   0.33950   0.55894   1.000
    Zr103   Zr   0.69232   0.83977   0.55955   1.000
    Zr104   Zr   0.17597   0.45360   0.64460   1.000
    Zr105   Zr   0.17611   0.95386   0.64494   1.000
    Zr106   Zr   0.67597   0.45360   0.64467   1.000
    Zr107   Zr   0.67610   0.95386   0.64494   1.000
    Zr108   Zr   0.08726   0.18919   0.55835   1.000
    Zr109   Zr   0.08755   0.68931   0.55867   1.000
    Zr110   Zr   0.58725   0.18919   0.55835   1.000
    Zr111   Zr   0.58754   0.68931   0.55868   1.000
    Zr112   Zr   0.17145   0.18611   0.54925   1.000
    Zr113   Zr   0.17183   0.68637   0.54985   1.000
    Zr114   Zr   0.67144   0.18611   0.54925   1.000
    Zr115   Zr   0.67182   0.68637   0.54985   1.000
    Zr116   Zr   0.14641   0.11739   0.64300   1.000
    Zr117   Zr   0.14660   0.61738   0.64375   1.000
    Zr118   Zr   0.64641   0.11739   0.64360   1.000
    Zr119   Zr   0.64659   0.61738   0.64375   1.000
    Zr120   Zr   0.39642   0.16162   0.44957   1.000
    Zr121   Zr   0.39671   0.66182   0.44994   1.000
    Zr122   Zr   0.89641   0.16162   0.44957   1.000
    Zr123   Zr   0.89670   0.66182   0.44994   1.000
    Zr124   Zr   0.30766   0.16021   0.44049   1.000
    Zr125   Zr   0.30800   0.66048   0.44109   1.000
    Zr126   Zr   0.80765   0.16021   0.44049   1.000
    Zr127   Zr   0.80799   0.66048   0.44109   1.000
    Zr128   Zr   0.32389   0.04612   0.35510   1.000
    Zr129   Zr   0.32403   0.54638   0.35537   1.000
    Zr130   Zr   0.82388   0.04612   0.35510   1.000
    Zr131   Zr   0.82402   0.54638   0.35537   1.000
    Zr132   Zr   0.41245   0.31068   0.44138   1.000
    Zr133   Zr   0.41274   0.81079   0.44171   1.000
    Zr134   Zr   0.91244   0.31067   0.44138   1.000
    Zr135   Zr   0.91272   0.81079   0.44170   1.000
    Zr136   Zr   0.32816   0.31361   0.45018   1.000
    Zr137   Zr   0.32854   0.81387   0.45079   1.000
    Zr138   Zr   0.82815   0.31361   0.45018   1.000
    Zr139   Zr   0.82853   0.81386   0.45078   1.000
    Zr140   Zr   0.35341   0.38261   0.35630   1.000
    Zr141   Zr   0.35359   0.88260   0.35645   1.000
    Zr142   Zr   0.85339   0.38260   0.35629   1.000
    Zr143   Zr   0.85358   0.88259   0.35644   1.000
    Zr144   Zr   0.05602   0.03792   0.77195   1.000
    Zr145   Zr   0.05597   0.53776   0.77182   1.000
    Zr146   Zr   0.55601   0.03792   0.77195   1.000
    Zr147   Zr   0.55597   0.53776   0.77182   1.000
    Zr148   Zr   0.17856   0.02444   0.88287   1.000
    Zr149   Zr   0.17850   0.52422   0.88269   1.000
    Zr150   Zr   0.67855   0.02444   0.88287   1.000
    Zr151   Zr   0.67849   0.52422   0.88270   1.000
    Zr152   Zr   0.32968   0.09812   0.77315   1.000
    Zr153   Zr   0.32958   0.59793   0.77349   1.000
    Zr154   Zr   0.82968   0.09812   0.77315   1.000
    Zr155   Zr   0.82958   0.59793   0.77349   1.000
    Zr156   Zr   0.26257   0.16733   0.88278   1.000
    Zr157   Zr   0.26245   0.66725   0.88297   1.000
    Zr158   Zr   0.76257   0.16732   0.88279   1.000
    Zr159   Zr   0.76244   0.66725   0.88290   1.000
    Zr160   Zr   0.44402   0.46222   0.22820   1.000
    Zr161   Zr   0.44397   0.96205   0.22807   1.000
    Zr162   Zr   0.94401   0.46222   0.22820   1.000
    Zr163   Zr   0.94396   0.96206   0.22807   1.000
    Zr164   Zr   0.32149   0.47578   0.11734   1.000
    Zr165   Zr   0.32144   0.97556   0.11716   1.000
    Zr166   Zr   0.82149   0.47578   0.11734   1.000
    Zr167   Zr   0.82143   0.97556   0.11716   1.000
    Zr168   Zr   0.17042   0.40205   0.22653   1.000
    Zr169   Zr   0.17032   0.90187   0.22688   1.000
    Zr170   Zr   0.67041   0.40205   0.22653   1.000
    Zr171   Zr   0.67031   0.90187   0.22688   1.000
    Zr172   Zr   0.23757   0.33274   0.11706   1.000
    Zr173   Zr   0.23744   0.83266   0.11726   1.000
    Zr174   Zr   0.73756   0.33274   0.11705   1.000
    Zr175   Zr   0.73743   0.83266   0.11725   1.000
    O176    O    0.70239   0.33913   0.12929   1.000
    O177    O    0.77364   0.38419   0.17890   1.000
    O178    O    0.20240   0.33913   0.12930   1.000
    O179    O    0.27365   0.38419   0.17891   1.000
    O180    O    0.36287   0.97554   0.12977   1.000
    O181    O    0.31561   0.95548   0.17891   1.000
    O182    O    0.86287   0.97554   0.12977   1.000
    O183    O    0.81560   0.95548   0.17891   1.000
    O184    O    0.70227   0.83903   0.12955   1.000
    O185    O    0.77360   0.88403   0.17896   1.000
    O186    O    0.20229   0.83903   0.12956   1.000
    O187    O    0.27361   0.88403   0.17896   1.000
    O188    O    0.36293   0.47573   0.12992   1.000
    O189    O    0.31562   0.45571   0.17904   1.000
    O190    O    0.86292   0.47573   0.12992   1.000
    O191    O    0.81561   0.45571   0.17904   1.000
    O192    O    0.16883   0.37379   0.18403   1.000
    O193    O    0.66882   0.37379   0.18403   1.000
    O194    O    0.66871   0.87363   0.18437   1.000
    O195    O    0.16872   0.87363   0.18437   1.000
    O196    O    0.42414   0.96879   0.18523   1.000
    O197    O    0.92413   0.96878   0.18523   1.000
    O198    O    0.92418   0.46895   0.18535   1.000
    O199    O    0.42419   0.46895   0.18535   1.000
    O200    O    0.24008   0.41885   0.23364   1.000
    O201    O    0.74007   0.41885   0.23364   1.000
    O202    O    0.74004   0.91864   0.23377   1.000
    O203    O    0.24005   0.91864   0.23377   1.000
    O204    O    0.87686   0.94873   0.23436   1.000
    O205    O    0.37688   0.94873   0.23437   1.000
    O206    O    0.87687   0.44893   0.23447   1.000
    O207    O    0.37688   0.44893   0.23447   1.000
    O208    O    0.81683   0.99076   0.29788   1.000
    O209    O    0.83167   0.90900   0.29855   1.000
    O210    O    0.31684   0.99076   0.29789   1.000
    O211    O    0.33169   0.90900   0.29856   1.000
    O212    O    0.31689   0.49101   0.29806   1.000
    O213    O    0.33157   0.40913   0.29852   1.000
    O214    O    0.81687   0.49101   0.29806   1.000
    O215    O    0.83156   0.40912   0.29852   1.000
    O216    O    0.29542   0.06802   0.36917   1.000
    O217    O    0.36330   0.06919   0.37604   1.000
    O218    O    0.79541   0.06802   0.36917   1.000
    O219    O    0.86329   0.06919   0.37604   1.000
    O220    O    0.29561   0.56831   0.36957   1.000
    O221    O    0.36345   0.56942   0.37627   1.000
    O222    O    0.79560   0.56830   0.36957   1.000
    O223    O    0.86344   0.56942   0.37627   1.000
    O224    O    0.88895   0.36769   0.37038   1.000
    O225    O    0.82445   0.36980   0.37704   1.000
    O226    O    0.38896   0.36769   0.37039   1.000
    O227    O    0.32447   0.36981   0.37705   1.000
    O228    O    0.88913   0.86766   0.37047   1.000
    O229    O    0.82470   0.86989   0.37736   1.000
    O230    O    0.38914   0.86766   0.37050   1.000
    O231    O    0.32472   0.86989   0.37737   1.000
    O232    O    0.23168   0.08032   0.37256   1.000
    O233    O    0.73168   0.08032   0.37256   1.000
    O234    O    0.23193   0.58065   0.37316   1.000
    O235    O    0.73192   0.58065   0.37317   1.000
    O236    O    0.95457   0.85706   0.37385   1.000
    O237    O    0.45458   0.85707   0.37389   1.000
    O238    O    0.95444   0.35718   0.37395   1.000
    O239    O    0.45445   0.35718   0.37396   1.000
    O240    O    0.78729   0.12507   0.41186   1.000
    O241    O    0.28730   0.12507   0.41186   1.000
    O242    O    0.78759   0.62536   0.41242   1.000
    O243    O    0.28759   0.62536   0.41242   1.000
    O244    O    0.91847   0.33172   0.41292   1.000
    O245    O    0.41848   0.33172   0.41293   1.000
    O246    O    0.91870   0.83176   0.41310   1.000
    O247    O    0.41871   0.83176   0.41312   1.000
    O248    O    0.93311   0.58355   0.39177   1.000
    O249    O    0.43312   0.58356   0.39178   1.000
    O250    O    0.93297   0.08338   0.39170   1.000
    O251    O    0.43298   0.08338   0.39170   1.000
    O252    O    0.76255   0.36322   0.39243   1.000
    O253    O    0.26256   0.36323   0.39244   1.000
    O254    O    0.76289   0.86344   0.39300   1.000
    O255    O    0.26290   0.86345   0.39301   1.000
    O256    O    0.89955   0.12694   0.42328   1.000
    O257    O    0.39956   0.12695   0.42328   1.000
    O258    O    0.89978   0.62715   0.42355   1.000
    O259    O    0.39979   0.62715   0.42355   1.000
    O260    O    0.81183   0.33530   0.42399   1.000
    O261    O    0.31184   0.33531   0.42399   1.000
    O262    O    0.81218   0.83552   0.42453   1.000
    O263    O    0.31219   0.83553   0.42454   1.000
    O264    O    0.85203   0.16091   0.44503   1.000
    O265    O    0.77872   0.20501   0.47006   1.000
    O266    O    0.35204   0.16091   0.44503   1.000
    O267    O    0.27873   0.20501   0.47006   1.000
    O268    O    0.85235   0.66115   0.44551   1.000
    O269    O    0.77908   0.70532   0.47075   1.000
    O270    O    0.35236   0.66115   0.44551   1.000
    O271    O    0.27909   0.70532   0.47074   1.000
    O272    O    0.87029   0.31214   0.44578   1.000
    O273    O    0.95614   0.28029   0.47059   1.000
    O274    O    0.37031   0.31214   0.44578   1.000
    O275    O    0.45614   0.28029   0.47059   1.000
    O276    O    0.87063   0.81233   0.44624   1.000
    O277    O    0.95644   0.78044   0.47098   1.000
    O278    O    0.37064   0.81233   0.44625   1.000
    O279    O    0.45644   0.78044   0.47095   1.000
    O280    O    0.44813   0.20576   0.47469   1.000
    O281    O    0.94813   0.20576   0.47468   1.000
    O282    O    0.44843   0.70595   0.47507   1.000
    O283    O    0.94843   0.70595   0.47510   1.000
    O284    O    0.78897   0.28171   0.47490   1.000
    O285    O    0.28898   0.28172   0.47490   1.000
    O286    O    0.78935   0.78201   0.47559   1.000
    O287    O    0.28936   0.78201   0.47559   1.000
    O288    O    0.21063   0.21797   0.52444   1.000
    O289    O    0.22090   0.29466   0.52928   1.000
    O290    O    0.71062   0.21797   0.52444   1.000
    O291    O    0.72089   0.29466   0.52928   1.000
    O292    O    0.05156   0.29403   0.52495   1.000
    O293    O    0.04355   0.21955   0.52908   1.000
    O294    O    0.55156   0.29403   0.52496   1.000
    O295    O    0.54355   0.21955   0.52908   1.000
    O296    O    0.55186   0.79423   0.52534   1.000
    O297    O    0.54384   0.71970   0.52944   1.000
    O298    O    0.05186   0.79422   0.52537   1.000
    O299    O    0.04385   0.71970   0.52946   1.000
    O300    O    0.21101   0.71826   0.52512   1.000
    O301    O    0.22126   0.79496   0.52997   1.000
    O302    O    0.71100   0.71826   0.52513   1.000
    O303    O    0.72125   0.79496   0.52998   1.000
    O304    O    0.12935   0.18765   0.55380   1.000
    O305    O    0.18780   0.16445   0.57549   1.000
    O306    O    0.62935   0.18765   0.55380   1.000
    O307    O    0.68779   0.16445   0.57547   1.000
    O308    O    0.12969   0.68784   0.55426   1.000
    O309    O    0.18815   0.66467   0.57604   1.000
    O310    O    0.62968   0.68784   0.55426   1.000
    O311    O    0.68814   0.66467   0.57604   1.000
    O312    O    0.14764   0.33883   0.55452   1.000
    O313    O    0.10021   0.37284   0.57650   1.000
    O314    O    0.64763   0.33883   0.55452   1.000
    O315    O    0.60020   0.37284   0.57650   1.000
    O316    O    0.14795   0.83907   0.55501   1.000
    O317    O    0.10044   0.87304   0.57677   1.000
    O318    O    0.64795   0.83907   0.55501   1.000
    O319    O    0.60043   0.87304   0.57677   1.000
    O320    O    0.08129   0.16823   0.58693   1.000
    O321    O    0.58128   0.16823   0.58693   1.000
    O322    O    0.08152   0.66826   0.58712   1.000
    O323    O    0.58151   0.66826   0.58713   1.000
    O324    O    0.71239   0.37462   0.58760   1.000
    O325    O    0.21240   0.37462   0.58760   1.000
    O326    O    0.21269   0.87491   0.58817   1.000
    O327    O    0.71269   0.87491   0.58817   1.000
    O328    O    0.73709   0.13653   0.60699   1.000
    O329    O    0.67528   0.13009   0.62265   1.000
    O330    O    0.23709   0.13653   0.60701   1.000
    O331    O    0.17528   0.13009   0.62237   1.000
    O332    O    0.23743   0.63675   0.60757   1.000
    O333    O    0.17554   0.63017   0.62299   1.000
    O334    O    0.73742   0.63675   0.60757   1.000
    O335    O    0.67553   0.63017   0.62299   1.000
    O336    O    0.06688   0.41643   0.60828   1.000
    O337    O    0.13655   0.43056   0.62374   1.000
    O338    O    0.56688   0.41643   0.60829   1.000
    O339    O    0.63655   0.43056   0.62378   1.000
    O340    O    0.06702   0.91661   0.60835   1.000
    O341    O    0.13670   0.93079   0.62400   1.000
    O342    O    0.56702   0.91661   0.60835   1.000
    O343    O    0.63670   0.93079   0.62400   1.000
    O344    O    0.04543   0.14292   0.62617   1.000
    O345    O    0.11086   0.13232   0.62926   1.000
    O346    O    0.54542   0.14292   0.62618   1.000
    O347    O    0.61086   0.13233   0.62956   1.000
    O348    O    0.04556   0.64281   0.62611   1.000
    O349    O    0.11105   0.63230   0.62966   1.000
    O350    O    0.54555   0.64281   0.62609   1.000
    O351    O    0.61104   0.63230   0.62967   1.000
    O352    O    0.26806   0.41932   0.62685   1.000
    O353    O    0.20439   0.43167   0.63043   1.000
    O354    O    0.76806   0.41932   0.62683   1.000
    O355    O    0.70439   0.43168   0.63046   1.000
    O356    O    0.26831   0.91966   0.62746   1.000
    O357    O    0.20458   0.93196   0.63087   1.000
    O358    O    0.76831   0.91965   0.62746   1.000
    O359    O    0.70458   0.93196   0.63087   1.000
    O360    O    0.16832   0.09098   0.70119   1.000
    O361    O    0.66832   0.09098   0.70149   1.000
    O362    O    0.16844   0.59085   0.70152   1.000
    O363    O    0.66843   0.59086   0.70152   1.000
    O364    O    0.18313   0.50897   0.70194   1.000
    O365    O    0.68312   0.50897   0.70198   1.000
    O366    O    0.18317   0.00922   0.70216   1.000
    O367    O    0.68317   0.00922   0.70216   1.000
    O368    O    0.12313   0.55105   0.76555   1.000
    O369    O    0.25993   0.58113   0.76639   1.000
    O370    O    0.18439   0.54427   0.82099   1.000
    O371    O    0.22636   0.61579   0.82113   1.000
    O372    O    0.62312   0.55105   0.76555   1.000
    O373    O    0.75992   0.58114   0.76639   1.000
    O374    O    0.68438   0.54428   0.82099   1.000
    O375    O    0.72636   0.61579   0.82110   1.000
    O376    O    0.12313   0.05125   0.76567   1.000
    O377    O    0.25996   0.08135   0.76626   1.000
    O378    O    0.22640   0.11595   0.82108   1.000
    O379    O    0.18440   0.04451   0.82113   1.000
    O380    O    0.62312   0.05125   0.76567   1.000
    O381    O    0.75995   0.08135   0.76626   1.000
    O382    O    0.72640   0.11595   0.82108   1.000
    O383    O    0.68439   0.04451   0.82113   1.000
    O384    O    0.07580   0.53103   0.81466   1.000
    O385    O    0.57579   0.53103   0.81467   1.000
    O386    O    0.07585   0.03120   0.81480   1.000
    O387    O    0.57584   0.03120   0.81480   1.000
    O388    O    0.33128   0.12636   0.81565   1.000
    O389    O    0.83128   0.12636   0.81566   1.000
    O390    O    0.33118   0.62619   0.81598   1.000
    O391    O    0.83117   0.62620   0.81598   1.000
    O392    O    0.13707   0.52426   0.87010   1.000
    O393    O    0.63706   0.52427   0.87011   1.000
    O394    O    0.63711   0.02445   0.87026   1.000
    O395    O    0.13712   0.02446   0.87026   1.000
    O396    O    0.29773   0.16096   0.87047   1.000
    O397    O    0.79772   0.16096   0.87048   1.000
    O398    O    0.79761   0.66086   0.87069   1.000
    O399    O    0.29761   0.66085   0.87072   1.000
    N400    N    0.50000   0.50000   0.99994   1.000
    O401    O    0.53533   0.50868   0.94676   1.000
    O402    O    0.46466   0.49132   0.05319   1.000
    N403    N    0.00005   0.25009   0.99985   1.000
    O404    O    0.93800   0.21482   0.94692   1.000
    O405    O    0.06210   0.28534   0.05277   1.000
    N406    N    0.49996   0.74991   0.00017   1.000
    O407    O    0.56200   0.78517   0.05310   1.000
    O408    O    0.43790   0.71465   0.94725   1.000
    N409    N    0.99996   0.74991   0.00016   1.000
    O410    O    0.93790   0.71465   0.94723   1.000
    O411    O    0.06201   0.78517   0.05309   1.000
    N412    N    0.50004   0.25008   0.99984   1.000
    O413    O    0.43800   0.21482   0.94691   1.000
    O414    O    0.56210   0.28534   0.05277   1.000
    N415    N    1.00000   0.99899   0.99996   1.000
    O416    O    0.03536   0.00824   0.94682   1.000
    O417    O    0.96464   0.99075   0.05316   1.000
    N418    N    0.50000   0.99899   0.00002   1.000
    O419    O    0.46464   0.99075   0.05318   1.000
    O420    O    0.53535   0.00824   0.94685   1.000
    N421    N    1.00000   0.50000   0.00001   1.000
    O422    O    0.96465   0.49131   0.05322   1.000
    O423    O    0.03534   0.50868   0.94679   1.000
loop_
    _geom_bond_atom_site_label_1
    _geom_bond_atom_site_label_2
    _geom_bond_distance
    _geom_bond_site_symmetry_2
    _ccdc_geom_bond_type
    Zr174  O176      0.63756      .   S
    Zr94   O176      0.63756      .   S
    Zr174  O177      1.06651      .   S
    Zr6    O177      1.06651      .   S
    Zr172  O178      0.63755      .   S
    Zr92   O178      0.63755      .   S
    Zr172  O179      1.06649      .   S
    Zr4    O179      1.06649      .   S
    Zr165  O180      0.63823      .   S
    Zr89   O180      0.63823      .   S
    Zr165  O181      1.06002      .   S
    Zr5    O181      1.06002      .   S
    Zr167  O182      0.63823      .   S
    Zr91   O182      0.63823      .   S
    Zr167  O183      1.06001      .   S
    Zr7    O183      1.06001      .   S
    Zr175  O184      0.63768      .   S
    Zr95   O184      0.63768      .   S
    Zr175  O185      1.06515      .   S
    Zr7    O185      1.06515      .   S
    Zr173  O186      0.63768      .   S
    Zr93   O186      0.63768      .   S
    Zr173  O187      1.06516      .   S
    Zr5    O187      1.06516      .   S
    Zr164  O188      0.63827      .   S
    Zr88   O188      0.63827      .   S
    Zr164  O189      1.05949      .   S
    Zr4    O189      1.05949      .   S
    Zr166  O190      0.63828      .   S
    Zr90   O190      0.63828      .   S
    Zr166  O191      1.05950      .   S
    Zr6    O191      1.05950      .   S
    Zr92   O192      0.64563      .   S
    Zr168  O192      0.64563      .   S
    Zr94   O193      0.64564      .   S
    Zr170  O193      0.64564      .   S
    Zr95   O194      0.64550      .   S
    Zr171  O194      0.64550      .   S
    Zr93   O195      0.64551      .   S
    Zr169  O195      0.64551      .   S
    Zr89   O196      0.64487      .   S
    Zr161  O196      0.64487      .   S
    Zr91   O197      0.64483      .   S
    Zr163  O197      0.64483      .   S
    Zr90   O198      0.64491      .   S
    Zr162  O198      0.64491      .   S
    Zr88   O199      0.64482      .   S
    Zr160  O199      0.64482      .   S
    Zr168  O200      1.10322      .   S
    Zr4    O200      1.10322      .   S
    Zr170  O201      1.10321      .   S
    Zr6    O201      1.10321      .   S
    Zr171  O202      1.10506      .   S
    Zr7    O202      1.10506      .   S
    Zr169  O203      1.10506      .   S
    Zr5    O203      1.10506      .   S
    Zr163  O204      1.11440      .   S
    Zr7    O204      1.11440      .   S
    Zr161  O205      1.11438      .   S
    Zr5    O205      1.11438      .   S
    Zr162  O206      1.11480      .   S
    Zr6    O206      1.11480      .   S
    Zr160  O207      1.11480      .   S
    Zr4    O207      1.11480      .   S
    Zr7    O208      1.08168      .   S
    Zr130  O208      1.08168  1_545   S
    Zr7    O209      1.08091      .   S
    Zr143  O209      1.08091      .   S
    Zr5    O210      1.08167      .   S
    Zr128  O210      1.08167  1_545   S
    Zr5    O211      1.08089      .   S
    Zr141  O211      1.08089      .   S
    Zr4    O212      1.08201      .   S
    Zr129  O212      1.08201      .   S
    Zr4    O213      1.08115      .   S
    Zr140  O213      1.08115      .   S
    Zr6    O214      1.08198      .   S
    Zr131  O214      1.08198      .   S
    Zr6    O215      1.08113      .   S
    Zr142  O215      1.08113      .   S
    Zr128  O216      0.67373      .   S
    Zr76   O216      0.67373      .   S
    Zr128  O217      0.67378      .   S
    Zr72   O217      0.67378      .   S
    Zr130  O218      0.67373      .   S
    Zr78   O218      0.67373      .   S
    Zr130  O219      0.67378      .   S
    Zr74   O219      0.67378      .   S
    Zr129  O220      0.67374      .   S
    Zr77   O220      0.67374      .   S
    Zr129  O221      0.67379      .   S
    Zr73   O221      0.67379      .   S
    Zr131  O222      0.67373      .   S
    Zr79   O222      0.67373      .   S
    Zr131  O223      0.67379      .   S
    Zr75   O223      0.67379      .   S
    Zr142  O224      0.67375      .   S
    Zr82   O224      0.67375      .   S
    Zr142  O225      0.67376      .   S
    Zr86   O225      0.67376      .   S
    Zr140  O226      0.67375      .   S
    Zr80   O226      0.67375      .   S
    Zr140  O227      0.67376      .   S
    Zr84   O227      0.67376      .   S
    Zr143  O228      0.67371      .   S
    Zr83   O228      0.67371      .   S
    Zr143  O229      0.67375      .   S
    Zr87   O229      0.67375      .   S
    Zr141  O230      0.67375      .   S
    Zr81   O230      0.67375      .   S
    Zr141  O231      0.67377      .   S
    Zr85   O231      0.67377      .   S
    Zr36   O232      0.54254      .   S
    Zr76   O232      0.54254      .   S
    Zr38   O233      0.54255      .   S
    Zr78   O233      0.54255      .   S
    Zr37   O234      0.54253      .   S
    Zr77   O234      0.54253      .   S
    Zr39   O235      0.54254      .   S
    Zr79   O235      0.54254      .   S
    Zr43   O236      0.54252      .   S
    Zr83   O236      0.54252      .   S
    Zr41   O237      0.54249      .   S
    Zr81   O237      0.54249      .   S
    Zr42   O238      0.54250      .   S
    Zr82   O238      0.54250      .   S
    Zr40   O239      0.54250      .   S
    Zr80   O239      0.54250      .   S
    Zr78   O240      0.67168      .   S
    Zr126  O240      0.67168      .   S
    Zr76   O241      0.67167      .   S
    Zr124  O241      0.67167      .   S
    Zr79   O242      0.67168      .   S
    Zr127  O242      0.67168      .   S
    Zr77   O243      0.67168      .   S
    Zr125  O243      0.67168      .   S
    Zr82   O244      0.67169      .   S
    Zr134  O244      0.67169      .   S
    Zr80   O245      0.67164      .   S
    Zr132  O245      0.67164      .   S
    Zr83   O246      0.67181      .   S
    Zr135  O246      0.67181      .   S
    Zr81   O247      0.67166      .   S
    Zr133  O247      0.67166      .   S
    Zr35   O248      0.54245      .   S
    Zr75   O248      0.54245      .   S
    Zr33   O249      0.54243      .   S
    Zr73   O249      0.54243      .   S
    Zr34   O250      0.54243      .   S
    Zr74   O250      0.54243      .   S
    Zr32   O251      0.54242      .   S
    Zr72   O251      0.54242      .   S
    Zr46   O252      0.54241      .   S
    Zr86   O252      0.54241      .   S
    Zr44   O253      0.54240      .   S
    Zr84   O253      0.54240      .   S
    Zr47   O254      0.54239      .   S
    Zr87   O254      0.54239      .   S
    Zr45   O255      0.54241      .   S
    Zr85   O255      0.54241      .   S
    Zr74   O256      0.67006      .   S
    Zr122  O256      0.67006      .   S
    Zr72   O257      0.67005      .   S
    Zr120  O257      0.67005      .   S
    Zr75   O258      0.67006      .   S
    Zr123  O258      0.67006      .   S
    Zr73   O259      0.67006      .   S
    Zr121  O259      0.67006      .   S
    Zr86   O260      0.67005      .   S
    Zr138  O260      0.67005      .   S
    Zr84   O261      0.67001      .   S
    Zr136  O261      0.67001      .   S
    Zr87   O262      0.67006      .   S
    Zr139  O262      0.67006      .   S
    Zr85   O263      0.67005      .   S
    Zr137  O263      0.67005      .   S
    Zr126  O264      0.69367      .   S
    Zr122  O264      0.69367      .   S
    Zr126  O265      1.04159      .   S
    Zr14   O265      1.04159      .   S
    Zr124  O266      0.69367      .   S
    Zr120  O266      0.69367      .   S
    Zr124  O267      1.04158      .   S
    Zr12   O267      1.04158      .   S
    Zr127  O268      0.69365      .   S
    Zr123  O268      0.69365      .   S
    Zr127  O269      1.04208      .   S
    Zr15   O269      1.04208      .   S
    Zr125  O270      0.69366      .   S
    Zr121  O270      0.69366      .   S
    Zr125  O271      1.04207      .   S
    Zr13   O271      1.04207      .   S
    Zr134  O272      0.69369      .   S
    Zr138  O272      0.69369      .   S
    Zr134  O273      1.04240      .   S
    Zr8    O273      1.04240      .   S
    Zr132  O274      0.69369      .   S
    Zr136  O274      0.69369      .   S
    Zr132  O275      1.04234      .   S
    Zr10   O275      1.04234      .   S
    Zr135  O276      0.69369      .   S
    Zr139  O276      0.69369      .   S
    Zr135  O277      1.04236      .   S
    Zr9    O277      1.04236  1_455   S
    Zr133  O278      0.69369      .   S
    Zr137  O278      0.69369      .   S
    Zr133  O279      1.04209      .   S
    Zr11   O279      1.04209      .   S
    Zr120  O280      1.04269      .   S
    Zr10   O280      1.04269      .   S
    Zr122  O281      1.04278      .   S
    Zr8    O281      1.04278      .   S
    Zr121  O282      1.04260      .   S
    Zr11   O282      1.04260      .   S
    Zr123  O283      1.04262      .   S
    Zr9    O283      1.04262  1_455   S
    Zr138  O284      1.04277      .   S
    Zr14   O284      1.04277      .   S
    Zr136  O285      1.04281      .   S
    Zr12   O285      1.04281      .   S
    Zr139  O286      1.04312      .   S
    Zr15   O286      1.04312      .   S
    Zr137  O287      1.04306      .   S
    Zr13   O287      1.04306      .   S
    Zr12   O288      1.04307      .   S
    Zr112  O288      1.04307      .   S
    Zr12   O289      1.04207      .   S
    Zr100  O289      1.04207      .   S
    Zr14   O290      1.04305      .   S
    Zr114  O290      1.04305      .   S
    Zr14   O291      1.04207      .   S
    Zr102  O291      1.04207      .   S
    Zr8    O292      1.04254  1_655   S
    Zr96   O292      1.04254      .   S
    Zr8    O293      1.04227  1_655   S
    Zr108  O293      1.04227      .   S
    Zr10   O294      1.04255      .   S
    Zr98   O294      1.04255      .   S
    Zr10   O295      1.04225      .   S
    Zr110  O295      1.04225      .   S
    Zr11   O296      1.04263      .   S
    Zr99   O296      1.04263      .   S
    Zr11   O297      1.04250      .   S
    Zr111  O297      1.04250      .   S
    Zr9    O298      1.04270      .   S
    Zr97   O298      1.04270      .   S
    Zr9    O299      1.04232      .   S
    Zr109  O299      1.04232      .   S
    Zr13   O300      1.04276      .   S
    Zr113  O300      1.04276      .   S
    Zr13   O301      1.04159      .   S
    Zr101  O301      1.04159      .   S
    Zr15   O302      1.04272      .   S
    Zr115  O302      1.04272      .   S
    Zr15   O303      1.04158      .   S
    Zr103  O303      1.04158      .   S
    Zr112  O304      0.69369      .   S
    Zr108  O304      0.69369      .   S
    Zr112  O305      0.67003      .   S
    Zr60   O305      0.67003      .   S
    Zr114  O306      0.69369      .   S
    Zr110  O306      0.69369      .   S
    Zr114  O307      0.66986      .   S
    Zr62   O307      0.66986      .   S
    Zr113  O308      0.69369      .   S
    Zr109  O308      0.69369      .   S
    Zr113  O309      0.67004      .   S
    Zr61   O309      0.67004      .   S
    Zr115  O310      0.69371      .   S
    Zr111  O310      0.69371      .   S
    Zr115  O311      0.67004      .   S
    Zr63   O311      0.67004      .   S
    Zr96   O312      0.69366      .   S
    Zr100  O312      0.69366      .   S
    Zr96   O313      0.67005      .   S
    Zr48   O313      0.67005      .   S
    Zr98   O314      0.69366      .   S
    Zr102  O314      0.69366      .   S
    Zr98   O315      0.67006      .   S
    Zr50   O315      0.67006      .   S
    Zr97   O316      0.69368      .   S
    Zr101  O316      0.69368      .   S
    Zr97   O317      0.67005      .   S
    Zr49   O317      0.67005      .   S
    Zr99   O318      0.69367      .   S
    Zr103  O318      0.69367      .   S
    Zr99   O319      0.67005      .   S
    Zr51   O319      0.67005      .   S
    Zr108  O320      0.67163      .   S
    Zr56   O320      0.67163      .   S
    Zr110  O321      0.67162      .   S
    Zr58   O321      0.67162      .   S
    Zr109  O322      0.67166      .   S
    Zr57   O322      0.67166      .   S
    Zr111  O323      0.67166      .   S
    Zr59   O323      0.67166      .   S
    Zr102  O324      0.67168      .   S
    Zr54   O324      0.67168      .   S
    Zr100  O325      0.67167      .   S
    Zr52   O325      0.67167      .   S
    Zr101  O326      0.67167      .   S
    Zr53   O326      0.67167      .   S
    Zr103  O327      0.67167      .   S
    Zr55   O327      0.67167      .   S
    Zr62   O328      0.54238      .   S
    Zr30   O328      0.54238      .   S
    Zr62   O329      0.67397      .   S
    Zr118  O329      0.67397      .   S
    Zr60   O330      0.54240      .   S
    Zr28   O330      0.54240      .   S
    Zr60   O331      0.67083      .   S
    Zr116  O331      0.67083      .   S
    Zr61   O332      0.54240      .   S
    Zr29   O332      0.54240      .   S
    Zr61   O333      0.67378      .   S
    Zr117  O333      0.67378      .   S
    Zr63   O334      0.54240      .   S
    Zr31   O334      0.54240      .   S
    Zr63   O335      0.67377      .   S
    Zr119  O335      0.67377      .   S
    Zr48   O336      0.54245      .   S
    Zr16   O336      0.54245      .   S
    Zr48   O337      0.67381      .   S
    Zr104  O337      0.67381      .   S
    Zr50   O338      0.54244      .   S
    Zr18   O338      0.54244      .   S
    Zr50   O339      0.67380      .   S
    Zr106  O339      0.67380      .   S
    Zr49   O340      0.54243      .   S
    Zr17   O340      0.54243      .   S
    Zr49   O341      0.67378      .   S
    Zr105  O341      0.67378      .   S
    Zr51   O342      0.54243      .   S
    Zr19   O342      0.54243      .   S
    Zr51   O343      0.67378      .   S
    Zr107  O343      0.67378      .   S
    Zr56   O344      0.54252      .   S
    Zr24   O344      0.54252      .   S
    Zr56   O345      0.67293      .   S
    Zr116  O345      0.67293      .   S
    Zr58   O346      0.54255      .   S
    Zr26   O346      0.54255      .   S
    Zr58   O347      0.67377      .   S
    Zr118  O347      0.67377      .   S
    Zr57   O348      0.54253      .   S
    Zr25   O348      0.54253      .   S
    Zr57   O349      0.67376      .   S
    Zr117  O349      0.67376      .   S
    Zr59   O350      0.54233      .   S
    Zr27   O350      0.54233      .   S
    Zr59   O351      0.67374      .   S
    Zr119  O351      0.67374      .   S
    Zr52   O352      0.54253      .   S
    Zr20   O352      0.54253      .   S
    Zr52   O353      0.67362      .   S
    Zr104  O353      0.67362      .   S
    Zr54   O354      0.54256      .   S
    Zr22   O354      0.54256      .   S
    Zr54   O355      0.67373      .   S
    Zr106  O355      0.67373      .   S
    Zr53   O356      0.54254      .   S
    Zr21   O356      0.54254      .   S
    Zr53   O357      0.67373      .   S
    Zr105  O357      0.67373      .   S
    Zr55   O358      0.54255      .   S
    Zr23   O358      0.54255      .   S
    Zr55   O359      0.67373      .   S
    Zr107  O359      0.67373      .   S
    Zr116  O360      1.08417      .   S
    Zr0    O360      1.08417      .   S
    Zr118  O361      1.08094      .   S
    Zr2    O361      1.08094      .   S
    Zr117  O362      1.08115      .   S
    Zr1    O362      1.08115      .   S
    Zr119  O363      1.08112      .   S
    Zr3    O363      1.08112      .   S
    Zr104  O364      1.08213      .   S
    Zr1    O364      1.08213      .   S
    Zr106  O365      1.08200      .   S
    Zr3    O365      1.08200      .   S
    Zr105  O366      1.08169  1_565   S
    Zr0    O366      1.08169      .   S
    Zr107  O367      1.08166  1_565   S
    Zr2    O367      1.08166      .   S
    Zr1    O368      1.11495      .   S
    Zr145  O368      1.11495      .   S
    Zr1    O369      1.10319      .   S
    Zr153  O369      1.10319      .   S
    Zr1    O370      1.05936      .   S
    Zr149  O370      1.05936      .   S
    Zr1    O371      1.06653      .   S
    Zr157  O371      1.06653      .   S
    Zr3    O372      1.11496      .   S
    Zr147  O372      1.11496      .   S
    Zr3    O373      1.10320      .   S
    Zr155  O373      1.10320      .   S
    Zr3    O374      1.05943      .   S
    Zr151  O374      1.05943      .   S
    Zr3    O375      1.06636      .   S
    Zr159  O375      1.06636      .   S
    Zr0    O376      1.11452      .   S
    Zr144  O376      1.11452      .   S
    Zr0    O377      1.10503      .   S
    Zr152  O377      1.10503      .   S
    Zr0    O378      1.06519      .   S
    Zr156  O378      1.06519      .   S
    Zr0    O379      1.05985      .   S
    Zr148  O379      1.05985      .   S
    Zr2    O380      1.11453      .   S
    Zr146  O380      1.11453      .   S
    Zr2    O381      1.10502      .   S
    Zr154  O381      1.10502      .   S
    Zr2    O382      1.06520      .   S
    Zr158  O382      1.06520      .   S
    Zr2    O383      1.05986      .   S
    Zr150  O383      1.05986      .   S
    Zr145  O384      0.64479      .   S
    Zr65   O384      0.64479      .   S
    Zr147  O385      0.64481      .   S
    Zr67   O385      0.64481      .   S
    Zr144  O386      0.64482      .   S
    Zr64   O386      0.64482      .   S
    Zr146  O387      0.64486      .   S
    Zr66   O387      0.64486      .   S
    Zr152  O388      0.64547      .   S
    Zr68   O388      0.64547      .   S
    Zr154  O389      0.64547      .   S
    Zr70   O389      0.64547      .   S
    Zr153  O390      0.64564      .   S
    Zr69   O390      0.64564      .   S
    Zr155  O391      0.64565      .   S
    Zr71   O391      0.64565      .   S
    Zr65   O392      0.63828      .   S
    Zr149  O392      0.63828      .   S
    Zr67   O393      0.63828      .   S
    Zr151  O393      0.63828      .   S
    Zr66   O394      0.63824      .   S
    Zr150  O394      0.63824      .   S
    Zr64   O395      0.63825      .   S
    Zr148  O395      0.63825      .   S
    Zr68   O396      0.63770      .   S
    Zr156  O396      0.63770      .   S
    Zr70   O397      0.63770      .   S
    Zr158  O397      0.63770      .   S
    Zr71   O398      0.63734      .   S
    Zr159  O398      0.63734      .   S
    Zr69   O399      0.63755      .   S
    Zr157  O399      0.63755      .   S
    N400   O401      1.07246      .   S
    Zr67   O401      1.81800      .   S
    N400   O402      1.07340  1_556   S
    Zr88   O402      1.81893      .   S
    N403   O404      1.07288  1_455   S
    Zr70   O404      1.81833      .   S
    N403   O405      1.07287  1_556   S
    Zr92   O405      1.81833      .   S
    N406   O407      1.07283      .   S
    Zr95   O407      1.81828      .   S
    N406   O408      1.07284  1_554   S
    Zr69   O408      1.81829      .   S
    N409   O410      1.07292  1_554   S
    Zr71   O410      1.81828      .   S
    N409   O411      1.07289  1_655   S
    Zr93   O411      1.81834      .   S
    N412   O413      1.07285      .   S
    Zr68   O413      1.81826      .   S
    N412   O414      1.07284  1_556   S
    Zr94   O414      1.81829      .   S
    N415   O416      1.07616  1_665   S
    Zr64   O416      1.82178      .   S
    N415   O417      1.06999  1_556   S
    Zr91   O417      1.81550      .   S
    N418   O419      1.06959      .   S
    Zr89   O419      1.81514      .   S
    N418   O420      1.07640  1_564   S
    Zr66   O420      1.82202      .   S
    N421   O422      1.07298      .   S
    Zr90   O422      1.81844      .   S
    N421   O423      1.07296  1_654   S
    Zr65   O423      1.81850      .   S
