# CIF file generated by openbabel 2.4.90, see http://openbabel.sf.net
data_I
_chemical_name_common ''
_cell_length_a 15.976
_cell_length_b 19.736
_cell_length_c 13.545
_cell_angle_alpha 109.661
_cell_angle_beta 105.44
_cell_angle_gamma 94.817
_space_group_name_H-M_alt 'P 1'
_space_group_name_Hall 'P 1'
loop_
    _symmetry_equiv_pos_as_xyz
    x,y,z
loop_
    _atom_site_label
    _atom_site_type_symbol
    _atom_site_fract_x
    _atom_site_fract_y
    _atom_site_fract_z
    _atom_site_occupancy
    Zr0     Zr   0.19023   0.06458   0.75938   1.000
    Zr1     Zr   0.19028   0.56433   0.75929   1.000
    Zr2     Zr   0.69023   0.06458   0.75938   1.000
    Zr3     Zr   0.69027   0.56434   0.75929   1.000
    Zr4     Zr   0.30974   0.43564   0.24075   1.000
    Zr5     Zr   0.30978   0.93540   0.24067   1.000
    Zr6     Zr   0.80973   0.43565   0.24075   1.000
    Zr7     Zr   0.80977   0.93540   0.24066   1.000
    Zr8     Zr   0.99985   0.24990   0.49980   1.000
    Zr9     Zr   0.00015   0.75008   0.50026   1.000
    Zr10    Zr   0.49984   0.24990   0.49981   1.000
    Zr11    Zr   0.50015   0.75009   0.50020   1.000
    Zr12    Zr   0.24980   0.24982   0.49963   1.000
    Zr13    Zr   0.25018   0.75016   0.50040   1.000
    Zr14    Zr   0.74979   0.24982   0.49963   1.000
    Zr15    Zr   0.75017   0.75015   0.50041   1.000
    N16     N    0.50000   0.50000   0.99994   1.000
    N17     N    0.00005   0.25009   0.99985   1.000
    N18     N    0.49996   0.74991   0.00017   1.000
    N19     N    0.99996   0.74991   0.00016   1.000
    N20     N    0.50004   0.25008   0.99984   1.000
    N21     N    1.00000   0.99899   0.99996   1.000
    N22     N    0.50000   0.99899   0.00002   1.000
    N23     N    1.00000   0.50000   0.00001   1.000
    C24     C    0.30838   0.14001   0.83803   1.000
    O25     O    0.28417   0.11068   0.80215   1.000
    O26     O    0.37319   0.17742   0.89247   1.000
    O27     O    0.26739   0.12798   0.82956   1.000
    C28     C    0.69162   0.85998   0.16199   1.000
    O29     O    0.62681   0.82257   0.10754   1.000
    O30     O    0.73261   0.87200   0.17047   1.000
    O31     O    0.71583   0.88931   0.19788   1.000
    C32     C    0.86139   0.84975   0.39752   1.000
    O33     O    0.82537   0.81588   0.43656   1.000
    O34     O    0.90892   0.81509   0.43425   1.000
    O35     O    0.84653   0.87937   0.34803   1.000
    C36     C    0.86114   0.34967   0.39723   1.000
    O37     O    0.82505   0.31569   0.43607   1.000
    O38     O    0.84635   0.37940   0.34788   1.000
    O39     O    0.90864   0.31498   0.43391   1.000
    C40     C    0.66323   0.90065   0.60380   1.000
    O41     O    0.60755   0.84744   0.56457   1.000
    O42     O    0.69224   0.84780   0.56689   1.000
    O43     O    0.67320   0.95493   0.65298   1.000
    C44     C    0.36115   0.34967   0.39724   1.000
    O45     O    0.40865   0.31498   0.43392   1.000
    O46     O    0.34636   0.37940   0.34788   1.000
    O47     O    0.32507   0.31569   0.43607   1.000
    C48     C    0.83675   0.09933   0.39624   1.000
    O49     O    0.89244   0.15255   0.43546   1.000
    O50     O    0.82679   0.04505   0.34706   1.000
    O51     O    0.80774   0.15217   0.43315   1.000
    C52     C    0.69173   0.36011   0.16171   1.000
    O53     O    0.71590   0.38948   0.19767   1.000
    O54     O    0.62691   0.32273   0.10724   1.000
    O55     O    0.73269   0.37215   0.17030   1.000
    C56     C    0.80826   0.63988   0.83829   1.000
    O57     O    0.76731   0.62784   0.82969   1.000
    O58     O    0.78409   0.61051   0.80234   1.000
    O59     O    0.87308   0.67727   0.89276   1.000
    C60     C    0.13885   0.65031   0.60281   1.000
    O61     O    0.17493   0.68429   0.56397   1.000
    O62     O    0.15365   0.62058   0.65216   1.000
    O63     O    0.09135   0.68500   0.56614   1.000
    C64     C    0.36140   0.84975   0.39754   1.000
    O65     O    0.34655   0.87938   0.34805   1.000
    O66     O    0.40892   0.81510   0.43425   1.000
    O67     O    0.32538   0.81588   0.43657   1.000
    C68     C    0.88995   0.47123   0.16268   1.000
    O69     O    0.92730   0.48127   0.10795   1.000
    O70     O    0.85278   0.46347   0.17086   1.000
    O71     O    0.88341   0.46008   0.19858   1.000
    C72     C    0.13859   0.15023   0.60242   1.000
    O73     O    0.09107   0.18489   0.56575   1.000
    O74     O    0.17461   0.18410   0.56343   1.000
    O75     O    0.15346   0.12061   0.65181   1.000
    C76     C    0.33676   0.09934   0.39624   1.000
    O77     O    0.30775   0.15218   0.43315   1.000
    O78     O    0.39244   0.15255   0.43547   1.000
    O79     O    0.32680   0.04505   0.34706   1.000
    C80     C    0.63859   0.15023   0.60251   1.000
    O81     O    0.59107   0.18489   0.56579   1.000
    O82     O    0.65345   0.12061   0.65200   1.000
    O83     O    0.67460   0.18410   0.56347   1.000
    C84     C    0.19174   0.36011   0.16171   1.000
    O85     O    0.21591   0.38948   0.19767   1.000
    O86     O    0.12692   0.32273   0.10724   1.000
    O87     O    0.23270   0.37215   0.17031   1.000
    C88     C    0.33698   0.59959   0.39661   1.000
    O89     O    0.30804   0.65245   0.43368   1.000
    O90     O    0.39270   0.65277   0.43584   1.000
    O91     O    0.32693   0.54530   0.34734   1.000
    C92     C    0.16324   0.90065   0.60380   1.000
    O93     O    0.19225   0.84781   0.56688   1.000
    O94     O    0.17320   0.95493   0.65298   1.000
    O95     O    0.10755   0.84744   0.56458   1.000
    C96     C    0.66301   0.40040   0.60342   1.000
    O97     O    0.69195   0.34753   0.56635   1.000
    O98     O    0.67307   0.45468   0.65270   1.000
    O99     O    0.60729   0.34721   0.56419   1.000
    C100    C    0.80838   0.14001   0.83804   1.000
    O101    O    0.87319   0.17742   0.89248   1.000
    O102    O    0.76739   0.12798   0.82956   1.000
    O103    O    0.78417   0.11068   0.80215   1.000
    C104    C    0.30827   0.63988   0.83831   1.000
    O105    O    0.26731   0.62784   0.82972   1.000
    O106    O    0.28410   0.61051   0.80235   1.000
    O107    O    0.37309   0.67726   0.89278   1.000
    C108    C    0.38991   0.97104   0.16254   1.000
    O109    O    0.42727   0.98090   0.10786   1.000
    O110    O    0.35276   0.96326   0.17073   1.000
    O111    O    0.38339   0.95989   0.19845   1.000
    C112    C    0.11009   0.02895   0.83749   1.000
    O113    O    0.07272   0.01859   0.89216   1.000
    O114    O    0.11661   0.04010   0.80158   1.000
    O115    O    0.14724   0.03673   0.82931   1.000
    C116    C    0.88990   0.97104   0.16254   1.000
    O117    O    0.85275   0.96326   0.17072   1.000
    O118    O    0.92727   0.98090   0.10785   1.000
    O119    O    0.88338   0.95989   0.19845   1.000
    C120    C    0.16302   0.40039   0.60341   1.000
    O121    O    0.10729   0.34721   0.56418   1.000
    O122    O    0.19196   0.34753   0.56635   1.000
    O123    O    0.17307   0.45468   0.65268   1.000
    C124    C    0.83697   0.59959   0.39661   1.000
    O125    O    0.82692   0.54530   0.34734   1.000
    O126    O    0.89270   0.65277   0.43586   1.000
    O127    O    0.80803   0.65245   0.43368   1.000
    C128    C    0.11004   0.52876   0.83734   1.000
    O129    O    0.14721   0.53652   0.82916   1.000
    O130    O    0.07269   0.51872   0.89207   1.000
    O131    O    0.11658   0.53990   0.80145   1.000
    C132    C    0.61003   0.52876   0.83735   1.000
    O133    O    0.64720   0.53652   0.82917   1.000
    O134    O    0.57268   0.51872   0.89205   1.000
    O135    O    0.61657   0.53991   0.80145   1.000
    C136    C    0.19163   0.85998   0.16200   1.000
    O137    O    0.21584   0.88931   0.19789   1.000
    O138    O    0.12682   0.82258   0.10755   1.000
    O139    O    0.23262   0.87200   0.17048   1.000
    C140    C    0.38996   0.47123   0.16268   1.000
    O141    O    0.35279   0.46347   0.17086   1.000
    O142    O    0.42731   0.48127   0.10794   1.000
    O143    O    0.38342   0.46008   0.19858   1.000
    C144    C    0.63884   0.65031   0.60280   1.000
    O145    O    0.67492   0.68429   0.56397   1.000
    O146    O    0.65364   0.62058   0.65216   1.000
    O147    O    0.59134   0.68500   0.56612   1.000
    C148    C    0.61008   0.02894   0.83749   1.000
    O149    O    0.61660   0.04010   0.80158   1.000
    O150    O    0.57272   0.01859   0.89217   1.000
    O151    O    0.64724   0.03673   0.82931   1.000
loop_
    _geom_bond_atom_site_label_1
    _geom_bond_atom_site_label_2
    _geom_bond_distance
    _geom_bond_site_symmetry_2
    _ccdc_geom_bond_type
    C24    O25       0.62764      .   S
    Zr0    O25       1.53906      .   S
    C24    O26       1.12226      .   S
    N20    O26       2.19504      .   S
    C24    O27       0.64334      .   S
    Zr0    O27       1.51839      .   S
    C28    O29       1.12228      .   S
    N18    O29       2.19503      .   S
    C28    O30       0.64335      .   S
    Zr7    O30       1.51836      .   S
    C28    O31       0.62763      .   S
    Zr7    O31       1.53906      .   S
    C32    O33       1.18020      .   S
    Zr15   O33       2.21819      .   S
    C32    O34       1.18613      .   S
    Zr9    O34       2.22763  1_455   S
    C32    O35       1.02454      .   S
    Zr7    O35       2.10222      .   S
    C36    O37       1.18010      .   S
    Zr14   O37       2.21782      .   S
    C36    O38       1.02473      .   S
    Zr6    O38       2.10263      .   S
    C36    O39       1.18614      .   S
    Zr8    O39       2.22767      .   S
    C40    O41       1.18008      .   S
    Zr11   O41       2.21770      .   S
    C40    O42       1.18576      .   S
    Zr15   O42       2.22649      .   S
    C40    O43       1.02548      .   S
    Zr2    O43       2.10415  1_545   S
    C44    O45       1.18609      .   S
    Zr10   O45       2.22757      .   S
    C44    O46       1.02472      .   S
    Zr4    O46       2.10264      .   S
    C44    O47       1.18008      .   S
    Zr12   O47       2.21784      .   S
    C48    O49       1.18012      .   S
    Zr8    O49       2.21788      .   S
    C48    O50       1.02550      .   S
    Zr7    O50       2.10418  1_565   S
    C48    O51       1.18577      .   S
    Zr14   O51       2.22653      .   S
    C52    O53       0.62822      .   S
    Zr6    O53       1.53778      .   S
    C52    O54       1.12231      .   S
    N20    O54       2.19508  1_556   S
    C52    O55       0.64253      .   S
    Zr6    O55       1.51880      .   S
    C56    O57       0.64251      .   S
    Zr3    O57       1.51875      .   S
    C56    O58       0.62818      .   S
    Zr3    O58       1.53778      .   S
    C56    O59       1.12234      .   S
    N19    O59       2.19519  1_554   S
    C60    O61       1.18007      .   S
    Zr13   O61       2.21778      .   S
    C60    O62       1.02475      .   S
    Zr1    O62       2.10267      .   S
    C60    O63       1.18610      .   S
    Zr9    O63       2.22757      .   S
    C64    O65       1.02459      .   S
    Zr5    O65       2.10225      .   S
    C64    O66       1.18596      .   S
    Zr11   O66       2.22719      .   S
    C64    O67       1.18012      .   S
    Zr13   O67       2.21805      .   S
    C68    O69       1.12224      .   S
    N23    O69       2.19514      .   S
    C68    O70       0.64774      .   S
    Zr6    O70       1.51781      .   S
    C68    O71       0.62524      .   S
    Zr6    O71       1.54677      .   S
    C72    O73       1.18580      .   S
    Zr8    O73       2.22723  1_655   S
    C72    O74       1.17967      .   S
    Zr12   O74       2.21763      .   S
    C72    O75       1.02346      .   S
    Zr0    O75       2.10435      .   S
    C76    O77       1.18577      .   S
    Zr12   O77       2.22651      .   S
    C76    O78       1.18008      .   S
    Zr10   O78       2.21775      .   S
    C76    O79       1.02549      .   S
    Zr5    O79       2.10416  1_565   S
    C80    O81       1.18603      .   S
    Zr10   O81       2.22743      .   S
    C80    O82       1.02464      .   S
    Zr2    O82       2.10235      .   S
    C80    O83       1.18008      .   S
    Zr14   O83       2.21800      .   S
    C84    O85       0.62822      .   S
    Zr4    O85       1.53778      .   S
    C84    O86       1.12233      .   S
    N17    O86       2.19513  1_556   S
    C84    O87       0.64253      .   S
    Zr4    O87       1.51879      .   S
    C88    O89       1.18602      .   S
    Zr13   O89       2.22724      .   S
    C88    O90       1.18005      .   S
    Zr11   O90       2.21765      .   S
    C88    O91       1.02570      .   S
    Zr4    O91       2.10473      .   S
    C92    O93       1.18577      .   S
    Zr13   O93       2.22653      .   S
    C92    O94       1.02550      .   S
    Zr0    O94       2.10419  1_545   S
    C92    O95       1.18009      .   S
    Zr9    O95       2.21776      .   S
    C96    O97       1.18601      .   S
    Zr14   O97       2.22722      .   S
    C96    O98       1.02570      .   S
    Zr3    O98       2.10472      .   S
    C96    O99       1.18005      .   S
    Zr10   O99       2.21761      .   S
    C100   O101      1.12230      .   S
    N17    O101      2.19510  1_455   S
    C100   O102      0.64334      .   S
    Zr2    O102      1.51840      .   S
    C100   O103      0.62765      .   S
    Zr2    O103      1.53905      .   S
    C104   O105      0.64252      .   S
    Zr1    O105      1.51881      .   S
    C104   O106      0.62823      .   S
    Zr1    O106      1.53776      .   S
    C104   O107      1.12231      .   S
    N18    O107      2.19508  1_554   S
    C108   O109      1.12051      .   S
    N22    O109      2.18999      .   S
    C108   O110      0.64755      .   S
    Zr5    O110      1.51812      .   S
    C108   O111      0.62545      .   S
    Zr5    O111      1.54658      .   S
    C112   O113      1.12387      .   S
    N21    O113      2.19999  1_665   S
    C112   O114      0.62536      .   S
    Zr0    O114      1.54663      .   S
    C112   O115      0.64760      .   S
    Zr0    O115      1.51800      .   S
    C116   O117      0.64755      .   S
    Zr7    O117      1.51809      .   S
    C116   O118      1.12066      .   S
    N21    O118      2.19054  1_556   S
    C116   O119      0.62543      .   S
    Zr7    O119      1.54658      .   S
    C120   O121      1.18005      .   S
    Zr8    O121      2.21761  1_655   S
    C120   O122      1.18600      .   S
    Zr12   O122      2.22721      .   S
    C120   O123      1.02564      .   S
    Zr1    O123      2.10476      .   S
    C124   O125      1.02569      .   S
    Zr6    O125      2.10469      .   S
    C124   O126      1.18007      .   S
    Zr9    O126      2.21770  1_455   S
    C124   O127      1.18603      .   S
    Zr15   O127      2.22725      .   S
    C128   O129      0.64778      .   S
    Zr1    O129      1.51771      .   S
    C128   O130      1.12220      .   S
    N23    O130      2.19508  1_654   S
    C128   O131      0.62514      .   S
    Zr1    O131      1.54683      .   S
    C132   O133      0.64779      .   S
    Zr3    O133      1.51778      .   S
    C132   O134      1.12195      .   S
    N16    O134      2.19434      .   S
    C132   O135      0.62517      .   S
    Zr3    O135      1.54687      .   S
    C136   O137      0.62764      .   S
    Zr5    O137      1.53908      .   S
    C136   O138      1.12231      .   S
    N19    O138      2.19512  1_655   S
    C136   O139      0.64335      .   S
    Zr5    O139      1.51839      .   S
    C140   O141      0.64772      .   S
    Zr4    O141      1.51776      .   S
    C140   O142      1.12242      .   S
    N16    O142      2.19575  1_556   S
    C140   O143      0.62520      .   S
    Zr4    O143      1.54674      .   S
    C144   O145      1.18003      .   S
    Zr15   O145      2.21770      .   S
    C144   O146      1.02475      .   S
    Zr3    O146      2.10264      .   S
    C144   O147      1.18617      .   S
    Zr11   O147      2.22782      .   S
    C148   O149      0.62538      .   S
    Zr2    O149      1.54666      .   S
    C148   O150      1.12401      .   S
    N22    O150      2.20036  1_564   S
    C148   O151      0.64762      .   S
    Zr2    O151      1.51803      .   S
