# CIF file generated by openbabel 2.4.90, see http://openbabel.sf.net
data_I
_chemical_name_common ''
_cell_length_a 15.316
_cell_length_b 19.21
_cell_length_c 19.485
_cell_angle_alpha 89.964
_cell_angle_beta 90
_cell_angle_gamma 90.069
_space_group_name_H-M_alt 'P 1'
_space_group_name_Hall 'P 1'
loop_
    _symmetry_equiv_pos_as_xyz
    x,y,z
loop_
    _atom_site_label
    _atom_site_type_symbol
    _atom_site_fract_x
    _atom_site_fract_y
    _atom_site_fract_z
    _atom_site_occupancy
    C0      C    0.18113   0.36812   0.49992   1.000
    C1      C    0.68114   0.36812   0.49992   1.000
    C2      C    0.31941   0.86821   0.49793   1.000
    C3      C    0.81942   0.86821   0.49793   1.000
    C4      C    0.13857   0.51701   0.89820   1.000
    C5      C    0.63858   0.51701   0.89822   1.000
    C6      C    0.17970   0.13385   0.99819   1.000
    C7      C    0.67972   0.13384   0.99819   1.000
    C8      C    0.36166   0.48513   0.39820   1.000
    C9      C    0.86167   0.48513   0.39820   1.000
    C10     C    0.36187   0.01724   0.89570   1.000
    C11     C    0.86189   0.01724   0.89570   1.000
    C12     C    0.32031   0.63337   0.99981   1.000
    C13     C    0.82033   0.63337   0.99981   1.000
    C14     C    0.13802   0.98513   0.39563   1.000
    C15     C    0.63804   0.98513   0.39563   1.000
