# CIF file generated by openbabel 2.4.90, see http://openbabel.sf.net
data_I
_chemical_name_common ''
_cell_length_a 15.316
_cell_length_b 19.21
_cell_length_c 19.485
_cell_angle_alpha 89.964
_cell_angle_beta 90
_cell_angle_gamma 90.069
_space_group_name_H-M_alt 'P 1'
_space_group_name_Hall 'P 1'
loop_
    _symmetry_equiv_pos_as_xyz
    x,y,z
loop_
    _atom_site_label
    _atom_site_type_symbol
    _atom_site_fract_x
    _atom_site_fract_y
    _atom_site_fract_z
    _atom_site_occupancy
    N0      N    0.55634   0.70330   0.46266   1.000
    N1      N    0.90434   0.97500   0.22772   1.000
    N2      N    0.09539   0.02560   0.72760   1.000
    N3      N    0.55728   0.79815   0.96230   1.000
    N4      N    0.05727   0.79815   0.96226   1.000
    N5      N    0.40433   0.97500   0.22774   1.000
    N6      N    0.09513   0.47537   0.23018   1.000
    N7      N    0.40523   0.52665   0.72968   1.000
    N8      N    0.05633   0.70330   0.46267   1.000
    N9      N    0.44401   0.20353   0.46240   1.000
    N10     N    0.90524   0.52665   0.72968   1.000
    N11     N    0.59514   0.47537   0.23018   1.000
    N12     N    0.94250   0.29839   0.96273   1.000
    N13     N    0.94401   0.20353   0.46239   1.000
    N14     N    0.44249   0.29839   0.96273   1.000
    N15     N    0.59540   0.02560   0.72760   1.000
    Zr16    Zr   0.73240   0.55854   0.96371   1.000
    O17     O    0.61786   0.54004   0.88255   1.000
    O18     O    0.84474   0.64356   0.97092   1.000
    O19     O    0.69695   0.52137   0.05246   1.000
    O20     O    0.79620   0.46854   0.96887   1.000
    Zr21    Zr   0.23239   0.55854   0.96370   1.000
    O22     O    0.11785   0.54004   0.88254   1.000
    O23     O    0.34473   0.64356   0.97093   1.000
    O24     O    0.29618   0.46854   0.96887   1.000
    O25     O    0.19694   0.52137   0.05246   1.000
    Zr26    Zr   0.23181   0.94337   0.46168   1.000
    O27     O    0.34398   0.85814   0.46963   1.000
    O28     O    0.19672   0.98034   0.55047   1.000
    O29     O    0.29641   0.03339   0.46748   1.000
    O30     O    0.11718   0.96185   0.38042   1.000
    Zr31    Zr   0.76781   0.05853   0.96185   1.000
    O32     O    0.70383   0.96818   0.96757   1.000
    O33     O    0.80300   0.02099   0.05060   1.000
    O34     O    0.88254   0.03982   0.88048   1.000
    O35     O    0.65531   0.14372   0.96978   1.000
    Zr36    Zr   0.73183   0.94336   0.46168   1.000
    O37     O    0.61719   0.96185   0.38042   1.000
    O38     O    0.84399   0.85814   0.46963   1.000
    O39     O    0.79641   0.03339   0.46749   1.000
    O40     O    0.69674   0.98034   0.55047   1.000
    Zr41    Zr   0.26780   0.05853   0.96185   1.000
    O42     O    0.20381   0.96818   0.96756   1.000
    O43     O    0.30298   0.02099   0.05061   1.000
    O44     O    0.38253   0.03982   0.88048   1.000
    O45     O    0.15530   0.14372   0.96978   1.000
    Zr46    Zr   0.26830   0.44339   0.46408   1.000
    O47     O    0.15629   0.35819   0.47118   1.000
    O48     O    0.38265   0.46194   0.38286   1.000
    O49     O    0.30355   0.48069   0.55283   1.000
    O50     O    0.20378   0.53338   0.46935   1.000
    Zr51    Zr   0.76831   0.44339   0.46409   1.000
    O52     O    0.88266   0.46194   0.38287   1.000
    O53     O    0.65631   0.35819   0.47119   1.000
    O54     O    0.70379   0.53338   0.46935   1.000
    O55     O    0.80356   0.48069   0.55284   1.000
loop_
    _geom_bond_atom_site_label_1
    _geom_bond_atom_site_label_2
    _geom_bond_distance
    _geom_bond_site_symmetry_2
    _ccdc_geom_bond_type
    Zr16   O17       2.38835      .   S
    N7     O17       4.42081      .   S
    Zr16   O18       2.37507      .   S
    N4     O18       4.40671  1_455   S
    Zr16   O19       1.94753  1_556   S
    N11    O19       3.89835      .   S
    Zr16   O20       1.98940      .   S
    N12    O20       3.96707      .   S
    Zr21   O22       2.38830      .   S
    N10    O22       4.42056  1_655   S
    Zr21   O23       2.37515      .   S
    N3     O23       4.40687      .   S
    Zr21   O24       1.98942      .   S
    N14    O24       3.96714      .   S
    Zr21   O25       1.94754  1_556   S
    N6     O25       3.89835      .   S
    Zr26   O27       2.37950      .   S
    N0     O27       4.41228      .   S
    Zr26   O28       1.94652      .   S
    N2     O28       3.88388  1_545   S
    Zr26   O29       1.99457  1_565   S
    N9     O29       3.97306      .   S
    Zr26   O30       2.39094      .   S
    N1     O30       4.42082  1_655   S
    Zr31   O32       1.99515  1_545   S
    N3     O32       3.96235      .   S
    Zr31   O33       1.94940  1_556   S
    N1     O33       3.88585  1_565   S
    Zr31   O34       2.39428      .   S
    N2     O34       4.42489  1_455   S
    Zr31   O35       2.38291      .   S
    N14    O35       4.41522      .   S
    Zr36   O37       2.39095      .   S
    N5     O37       4.42087      .   S
    Zr36   O38       2.37945      .   S
    N8     O38       4.41209  1_455   S
    Zr36   O39       1.99454  1_565   S
    N13    O39       3.97290      .   S
    Zr36   O40       1.94654      .   S
    N15    O40       3.88393  1_545   S
    Zr41   O42       1.99512  1_545   S
    N4     O42       3.96231      .   S
    Zr41   O43       1.94947  1_556   S
    N5     O43       3.88607  1_565   S
    Zr41   O44       2.39435      .   S
    N15    O44       4.42507      .   S
    Zr41   O45       2.38285      .   S
    N12    O45       4.41503  1_655   S
    Zr46   O47       2.37353      .   S
    N13    O47       4.40514  1_655   S
    Zr46   O48       2.38675      .   S
    N11    O48       4.41648      .   S
    Zr46   O49       1.94847      .   S
    N7     O49       3.88310      .   S
    Zr46   O50       1.99507      .   S
    N8     O50       3.97347      .   S
    Zr51   O52       2.38674      .   S
    N6     O52       4.41634  1_455   S
    Zr51   O53       2.37354      .   S
    N9     O53       4.40520      .   S
    Zr51   O54       1.99509      .   S
    N0     O54       3.97354      .   S
    Zr51   O55       1.94838      .   S
    N10    O55       3.88297      .   S
