# CIF file generated by openbabel 2.4.90, see http://openbabel.sf.net
data_I
_chemical_name_common ''
_cell_length_a 15.316
_cell_length_b 19.21
_cell_length_c 19.485
_cell_angle_alpha 89.964
_cell_angle_beta 90
_cell_angle_gamma 90.069
_space_group_name_H-M_alt 'P 1'
_space_group_name_Hall 'P 1'
loop_
    _symmetry_equiv_pos_as_xyz
    x,y,z
loop_
    _atom_site_label
    _atom_site_type_symbol
    _atom_site_fract_x
    _atom_site_fract_y
    _atom_site_fract_z
    _atom_site_occupancy
    C0      C    0.25534   0.49988   0.50266   1.000
    C1      C    0.75536   0.49988   0.50266   1.000
    C2      C    0.24475   0.50255   0.00000   1.000
    C3      C    0.74477   0.50255   0.00000   1.000
    C4      C    0.24471   0.99963   0.49997   1.000
    C5      C    0.74473   0.99963   0.49997   1.000
    C6      C    0.25528   0.00000   0.00000   1.000
    C7      C    0.75529   0.00000   0.00000   1.000
    C8      C    0.30629   0.72864   0.47980   1.000
    C9      C    0.80631   0.72864   0.47980   1.000
    C10     C    0.42426   0.64336   0.45717   1.000
    C11     C    0.92428   0.64336   0.45717   1.000
    C12     C    0.11489   0.80874   0.47748   1.000
    C13     C    0.61490   0.80874   0.47748   1.000
    C14     C    0.49461   0.89389   0.49140   1.000
    C15     C    0.99463   0.89389   0.49140   1.000
    C16     C    0.00023   0.55880   0.52618   1.000
    C17     C    0.50025   0.55880   0.52618   1.000
    C18     C    0.03639   0.62594   0.58264   1.000
    C19     C    0.53640   0.62594   0.58264   1.000
    C20     C    0.09651   0.54640   0.57661   1.000
    C21     C    0.59653   0.54640   0.57660   1.000
    C22     C    0.20105   0.78466   0.38387   1.000
    C23     C    0.70106   0.78466   0.38387   1.000
    C24     C    0.11400   0.74975   0.33438   1.000
    C25     C    0.61402   0.74975   0.33438   1.000
    C26     C    0.22365   0.72056   0.32016   1.000
    C27     C    0.72366   0.72056   0.32016   1.000
    C28     C    0.15141   0.52337   0.76170   1.000
    C29     C    0.65142   0.52337   0.76172   1.000
    C30     C    0.03233   0.52874   0.67522   1.000
    C31     C    0.53234   0.52874   0.67522   1.000
    C32     C    0.34132   0.51189   0.83753   1.000
    C33     C    0.84134   0.51189   0.83753   1.000
    C34     C    0.46049   0.50928   0.92299   1.000
    C35     C    0.96050   0.50928   0.92299   1.000
    C36     C    0.36402   0.39624   0.58496   1.000
    C37     C    0.86404   0.39624   0.58496   1.000
    C38     C    0.41310   0.39378   0.66850   1.000
    C39     C    0.91312   0.39378   0.66850   1.000
    C40     C    0.46563   0.43844   0.60037   1.000
    C41     C    0.96564   0.43844   0.60037   1.000
    C42     C    0.24648   0.67608   0.72000   1.000
    C43     C    0.74649   0.67608   0.72000   1.000
    C44     C    0.35199   0.65910   0.76467   1.000
    C45     C    0.85201   0.65910   0.76467   1.000
    C46     C    0.25941   0.61367   0.79660   1.000
    C47     C    0.75942   0.61367   0.79660   1.000
    C48     C    0.19246   0.27334   0.98007   1.000
    C49     C    0.69248   0.27334   0.98006   1.000
    C50     C    0.07436   0.35843   0.95717   1.000
    C51     C    0.57437   0.35843   0.95710   1.000
    C52     C    0.38410   0.19272   0.97718   1.000
    C53     C    0.88412   0.19272   0.97718   1.000
    C54     C    0.00454   0.10774   0.99117   1.000
    C55     C    0.50456   0.10774   0.99117   1.000
    C56     C    0.49887   0.44309   0.02603   1.000
    C57     C    0.99888   0.44309   0.02603   1.000
    C58     C    0.46364   0.37525   0.08209   1.000
    C59     C    0.96365   0.37525   0.08209   1.000
    C60     C    0.40290   0.45456   0.07705   1.000
    C61     C    0.90291   0.45456   0.07700   1.000
    C62     C    0.29705   0.21718   0.88446   1.000
    C63     C    0.79707   0.21718   0.88440   1.000
    C64     C    0.38373   0.25195   0.83445   1.000
    C65     C    0.88375   0.25195   0.83445   1.000
    C66     C    0.27403   0.28128   0.82078   1.000
    C67     C    0.77405   0.28129   0.82070   1.000
    C68     C    0.34896   0.47848   0.26174   1.000
    C69     C    0.84898   0.47848   0.26174   1.000
    C70     C    0.46812   0.47305   0.17530   1.000
    C71     C    0.96814   0.47305   0.17530   1.000
    C72     C    0.15898   0.49001   0.33769   1.000
    C73     C    0.65899   0.49001   0.33769   1.000
    C74     C    0.03971   0.49272   0.42308   1.000
    C75     C    0.53973   0.49272   0.42308   1.000
    C76     C    0.13615   0.60604   0.08527   1.000
    C77     C    0.63616   0.60604   0.08527   1.000
    C78     C    0.08701   0.60824   0.16880   1.000
    C79     C    0.58702   0.60824   0.16880   1.000
    C80     C    0.03460   0.56370   0.10058   1.000
    C81     C    0.53462   0.56370   0.10058   1.000
    C82     C    0.25417   0.32602   0.22903   1.000
    C83     C    0.75418   0.32602   0.22903   1.000
    C84     C    0.14858   0.34276   0.26465   1.000
    C85     C    0.64860   0.34276   0.26465   1.000
    C86     C    0.24103   0.38827   0.29669   1.000
    C87     C    0.74104   0.38827   0.29660   1.000
    C88     C    0.19408   0.22888   0.47959   1.000
    C89     C    0.69409   0.22888   0.47959   1.000
    C90     C    0.07597   0.14386   0.45567   1.000
    C91     C    0.57598   0.14386   0.45567   1.000
    C92     C    0.38554   0.30860   0.47911   1.000
    C93     C    0.88555   0.30860   0.47911   1.000
    C94     C    0.00597   0.39366   0.49420   1.000
    C95     C    0.50599   0.39366   0.49425   1.000
    C96     C    0.50033   0.05844   0.52355   1.000
    C97     C    0.00000   0.05844   0.52355   1.000
    C98     C    0.46374   0.12432   0.58120   1.000
    C99     C    0.96375   0.12432   0.58120   1.000
    C100    C    0.40412   0.04452   0.57365   1.000
    C101    C    0.90413   0.04452   0.57365   1.000
    C102    C    0.29942   0.28603   0.38508   1.000
    C103    C    0.79943   0.28603   0.38508   1.000
    C104    C    0.38613   0.25193   0.33481   1.000
    C105    C    0.88615   0.25193   0.33481   1.000
    C106    C    0.27634   0.22297   0.32043   1.000
    C107    C    0.77636   0.22296   0.32043   1.000
    C108    C    0.34923   0.02317   0.75920   1.000
    C109    C    0.84924   0.02318   0.75920   1.000
    C110    C    0.46838   0.02833   0.67275   1.000
    C111    C    0.96840   0.02833   0.67275   1.000
    C112    C    0.15921   0.00000   0.83522   1.000
    C113    C    0.65922   0.00000   0.83522   1.000
    C114    C    0.04000   0.00000   0.92061   1.000
    C115    C    0.54002   0.00000   0.92061   1.000
    C116    C    0.13645   0.89566   0.58309   1.000
    C117    C    0.63647   0.89565   0.58309   1.000
    C118    C    0.08732   0.89351   0.66664   1.000
    C119    C    0.58734   0.89351   0.66664   1.000
    C120    C    0.03486   0.93775   0.59827   1.000
    C121    C    0.53487   0.93775   0.59827   1.000
    C122    C    0.25444   0.17618   0.72598   1.000
    C123    C    0.75445   0.17618   0.72598   1.000
    C124    C    0.14891   0.15925   0.76173   1.000
    C125    C    0.64893   0.15925   0.76173   1.000
    C126    C    0.24142   0.11398   0.79379   1.000
    C127    C    0.74144   0.11398   0.79379   1.000
    C128    C    0.30727   0.77256   0.97944   1.000
    C129    C    0.80729   0.77256   0.97944   1.000
    C130    C    0.42528   0.85764   0.95544   1.000
    C131    C    0.92530   0.85764   0.95544   1.000
    C132    C    0.11586   0.69296   0.97876   1.000
    C133    C    0.61588   0.69296   0.97876   1.000
    C134    C    0.49554   0.60783   0.99384   1.000
    C135    C    0.99556   0.60783   0.99384   1.000
    C136    C    0.00029   0.94338   0.02316   1.000
    C137    C    0.50031   0.94338   0.02316   1.000
    C138    C    0.03621   0.87705   0.08063   1.000
    C139    C    0.53623   0.87705   0.08063   1.000
    C140    C    0.09615   0.95676   0.07380   1.000
    C141    C    0.59616   0.95676   0.07380   1.000
    C142    C    0.20263   0.71598   0.88546   1.000
    C143    C    0.70265   0.71598   0.88546   1.000
    C144    C    0.11622   0.74997   0.83475   1.000
    C145    C    0.61624   0.74997   0.83475   1.000
    C146    C    0.22604   0.77916   0.82093   1.000
    C147    C    0.72605   0.77916   0.82093   1.000
    C148    C    0.15049   0.97879   0.25916   1.000
    C149    C    0.65050   0.97878   0.25916   1.000
    C150    C    0.03121   0.97348   0.17281   1.000
    C151    C    0.53122   0.97348   0.17281   1.000
    C152    C    0.34060   0.98988   0.33538   1.000
    C153    C    0.84062   0.98987   0.33538   1.000
    C154    C    0.45994   0.99252   0.42068   1.000
    C155    C    0.95996   0.99251   0.42068   1.000
    C156    C    0.36324   0.10672   0.08348   1.000
    C157    C    0.86326   0.10672   0.08348   1.000
    C158    C    0.41261   0.10851   0.16695   1.000
    C159    C    0.91262   0.10851   0.16695   1.000
    C160    C    0.46483   0.06449   0.09837   1.000
    C161    C    0.96485   0.06449   0.09837   1.000
    C162    C    0.24498   0.82600   0.22618   1.000
    C163    C    0.74500   0.82600   0.22618   1.000
    C164    C    0.35058   0.84272   0.26187   1.000
    C165    C    0.85060   0.84272   0.26180   1.000
    C166    C    0.25823   0.88814   0.29395   1.000
    C167    C    0.75824   0.88813   0.29395   1.000
    C168    C    0.31941   0.86821   0.49793   1.000
    C169    C    0.81942   0.86821   0.49793   1.000
    C170    C    0.39246   0.81682   0.48708   1.000
    C171    C    0.89248   0.81682   0.48708   1.000
    C172    C    0.37382   0.74597   0.47813   1.000
    C173    C    0.87384   0.74597   0.47813   1.000
    C174    C    0.44029   0.69789   0.46600   1.000
    C175    C    0.94030   0.69789   0.46629   1.000
    C176    C    0.02691   0.72110   0.46593   1.000
    C177    C    0.52693   0.72110   0.46593   1.000
    C178    C    0.04715   0.79140   0.47591   1.000
    C179    C    0.54717   0.79140   0.47591   1.000
    C180    C    0.47965   0.83892   0.48515   1.000
    C181    C    0.97967   0.83892   0.48515   1.000
    C182    C    0.05828   0.58460   0.54776   1.000
    C183    C    0.55830   0.58460   0.54776   1.000
    C184    C    0.11422   0.61360   0.49280   1.000
    C185    C    0.61424   0.61360   0.49280   1.000
    C186    C    0.16631   0.67983   0.40965   1.000
    C187    C    0.66632   0.67983   0.40965   1.000
    C188    C    0.17643   0.73708   0.35911   1.000
    C189    C    0.67644   0.73708   0.35911   1.000
    C190    C    0.13857   0.51701   0.89820   1.000
    C191    C    0.63858   0.51701   0.89822   1.000
    C192    C    0.06419   0.51587   0.84798   1.000
    C193    C    0.56421   0.51587   0.84798   1.000
    C194    C    0.08348   0.52061   0.77777   1.000
    C195    C    0.58350   0.52060   0.77777   1.000
    C196    C    0.01695   0.52318   0.72940   1.000
    C197    C    0.51697   0.52317   0.72940   1.000
    C198    C    0.42995   0.52049   0.75108   1.000
    C199    C    0.92997   0.52049   0.75108   1.000
    C200    C    0.40911   0.51414   0.82062   1.000
    C201    C    0.90913   0.51414   0.82062   1.000
    C202    C    0.47671   0.51208   0.86871   1.000
    C203    C    0.97673   0.51208   0.86871   1.000
    C204    C    0.40169   0.42604   0.62286   1.000
    C205    C    0.90171   0.42605   0.62286   1.000
    C206    C    0.35255   0.48975   0.64116   1.000
    C207    C    0.85257   0.48975   0.64116   1.000
    C208    C    0.30138   0.58140   0.69675   1.000
    C209    C    0.80140   0.58140   0.69675   1.000
    C210    C    0.28924   0.63564   0.74995   1.000
    C211    C    0.78926   0.63564   0.74995   1.000
    C212    C    0.17970   0.13385   0.99819   1.000
    C213    C    0.67972   0.13384   0.99819   1.000
    C214    C    0.10650   0.18501   0.98714   1.000
    C215    C    0.60652   0.18501   0.98714   1.000
    C216    C    0.12499   0.25590   0.97823   1.000
    C217    C    0.62501   0.25590   0.97820   1.000
    C218    C    0.05844   0.30387   0.96626   1.000
    C219    C    0.55846   0.30387   0.96626   1.000
    C220    C    0.47187   0.28053   0.96579   1.000
    C221    C    0.97188   0.28053   0.96579   1.000
    C222    C    0.45179   0.21017   0.97566   1.000
    C223    C    0.95181   0.21017   0.97566   1.000
    C224    C    0.01939   0.16274   0.98498   1.000
    C225    C    0.51941   0.16274   0.98498   1.000
    C226    C    0.44116   0.41683   0.04768   1.000
    C227    C    0.94117   0.41683   0.04768   1.000
    C228    C    0.38495   0.38808   0.99281   1.000
    C229    C    0.88496   0.38808   0.99281   1.000
    C230    C    0.33221   0.32197   0.90990   1.000
    C231    C    0.83223   0.32197   0.90990   1.000
    C232    C    0.32156   0.26472   0.85950   1.000
    C233    C    0.82158   0.26472   0.85950   1.000
    C234    C    0.36166   0.48513   0.39820   1.000
    C235    C    0.86167   0.48513   0.39820   1.000
    C236    C    0.43610   0.48610   0.34803   1.000
    C237    C    0.93612   0.48611   0.34803   1.000
    C238    C    0.41687   0.48126   0.27781   1.000
    C239    C    0.91688   0.48126   0.27781   1.000
    C240    C    0.48344   0.47866   0.22949   1.000
    C241    C    0.98345   0.47866   0.22949   1.000
    C242    C    0.07042   0.48140   0.25122   1.000
    C243    C    0.57043   0.48140   0.25122   1.000
    C244    C    0.09120   0.48776   0.32075   1.000
    C245    C    0.59122   0.48776   0.32075   1.000
    C246    C    0.02356   0.48986   0.36880   1.000
    C247    C    0.52357   0.48986   0.36880   1.000
    C248    C    0.09850   0.57610   0.12311   1.000
    C249    C    0.59851   0.57610   0.12311   1.000
    C250    C    0.14775   0.51241   0.14134   1.000
    C251    C    0.64776   0.51241   0.14134   1.000
    C252    C    0.19907   0.42069   0.19683   1.000
    C253    C    0.69909   0.42069   0.19683   1.000
    C254    C    0.21129   0.36635   0.24999   1.000
    C255    C    0.71130   0.36635   0.24999   1.000
    C256    C    0.18113   0.36812   0.49992   1.000
    C257    C    0.68114   0.36812   0.49992   1.000
    C258    C    0.10800   0.31680   0.48846   1.000
    C259    C    0.60801   0.31680   0.48846   1.000
    C260    C    0.12656   0.24614   0.47831   1.000
    C261    C    0.62658   0.24614   0.47831   1.000
    C262    C    0.06002   0.19820   0.46575   1.000
    C263    C    0.56004   0.19820   0.46575   1.000
    C264    C    0.47342   0.22130   0.46591   1.000
    C265    C    0.97343   0.22130   0.46591   1.000
    C266    C    0.45325   0.29138   0.47715   1.000
    C267    C    0.95326   0.29138   0.47715   1.000
    C268    C    0.02082   0.33882   0.48700   1.000
    C269    C    0.52084   0.33882   0.48707   1.000
    C270    C    0.44212   0.08352   0.54557   1.000
    C271    C    0.94213   0.08352   0.54557   1.000
    C272    C    0.38608   0.11327   0.49112   1.000
    C273    C    0.88609   0.11327   0.49112   1.000
    C274    C    0.33391   0.18078   0.40909   1.000
    C275    C    0.83393   0.18078   0.40909   1.000
    C276    C    0.32378   0.23885   0.35951   1.000
    C277    C    0.82380   0.23885   0.35951   1.000
    C278    C    0.36187   0.01724   0.89570   1.000
    C279    C    0.86189   0.01724   0.89570   1.000
    C280    C    0.43634   0.01598   0.84554   1.000
    C281    C    0.93636   0.01598   0.84554   1.000
    C282    C    0.41713   0.02049   0.77500   1.000
    C283    C    0.91714   0.02050   0.77500   1.000
    C284    C    0.48371   0.02296   0.72696   1.000
    C285    C    0.98372   0.02297   0.72696   1.000
    C286    C    0.07069   0.02045   0.74869   1.000
    C287    C    0.57071   0.02044   0.74869   1.000
    C288    C    0.09145   0.01435   0.81820   1.000
    C289    C    0.59146   0.01435   0.81825   1.000
    C290    C    0.02380   0.01235   0.86632   1.000
    C291    C    0.52381   0.01235   0.86632   1.000
    C292    C    0.09877   0.92557   0.62084   1.000
    C293    C    0.59878   0.92557   0.62084   1.000
    C294    C    0.14796   0.98942   0.63880   1.000
    C295    C    0.64797   0.98942   0.63880   1.000
    C296    C    0.19931   0.08133   0.69407   1.000
    C297    C    0.69932   0.08133   0.69407   1.000
    C298    C    0.21161   0.13577   0.74708   1.000
    C299    C    0.71162   0.13577   0.74708   1.000
    C300    C    0.32031   0.63337   0.99981   1.000
    C301    C    0.82033   0.63337   0.99981   1.000
    C302    C    0.39342   0.68466   0.98822   1.000
    C303    C    0.89344   0.68466   0.98820   1.000
    C304    C    0.37480   0.75532   0.97808   1.000
    C305    C    0.87481   0.75532   0.97808   1.000
    C306    C    0.44129   0.80330   0.96550   1.000
    C307    C    0.94130   0.80331   0.96550   1.000
    C308    C    0.02792   0.78027   0.96566   1.000
    C309    C    0.52794   0.78027   0.96566   1.000
    C310    C    0.04814   0.71017   0.97681   1.000
    C311    C    0.54816   0.71017   0.97681   1.000
    C312    C    0.48060   0.66267   0.98670   1.000
    C313    C    0.98062   0.66267   0.98672   1.000
    C314    C    0.05825   0.91804   0.04532   1.000
    C315    C    0.55827   0.91804   0.04532   1.000
    C316    C    0.11467   0.88851   0.99104   1.000
    C317    C    0.61469   0.88851   0.99104   1.000
    C318    C    0.16761   0.82115   0.90927   1.000
    C319    C    0.66763   0.82115   0.90927   1.000
    C320    C    0.17832   0.76314   0.85977   1.000
    C321    C    0.67834   0.76314   0.85977   1.000
    C322    C    0.13802   0.98513   0.39563   1.000
    C323    C    0.63804   0.98513   0.39563   1.000
    C324    C    0.06348   0.98620   0.34554   1.000
    C325    C    0.56350   0.98620   0.34554   1.000
    C326    C    0.08261   0.98150   0.27500   1.000
    C327    C    0.58262   0.98150   0.27529   1.000
    C328    C    0.01597   0.97894   0.22700   1.000
    C329    C    0.51598   0.97894   0.22700   1.000
    C330    C    0.42902   0.98156   0.24880   1.000
    C331    C    0.92903   0.98156   0.24880   1.000
    C332    C    0.40834   0.98775   0.31838   1.000
    C333    C    0.90836   0.98774   0.31838   1.000
    C334    C    0.47606   0.98983   0.36638   1.000
    C335    C    0.97607   0.98983   0.36638   1.000
    C336    C    0.40100   0.07663   0.12108   1.000
    C337    C    0.90102   0.07663   0.12108   1.000
    C338    C    0.35179   0.00000   0.13901   1.000
    C339    C    0.85180   0.00000   0.13901   1.000
    C340    C    0.30034   0.92079   0.19400   1.000
    C341    C    0.80036   0.92079   0.19400   1.000
    C342    C    0.28794   0.86632   0.24723   1.000
    C343    C    0.78796   0.86632   0.24723   1.000
    C344    C    0.18901   0.58704   0.47051   1.000
    C345    C    0.68903   0.58704   0.47051   1.000
    C346    C    0.22171   0.62801   0.41794   1.000
    C347    C    0.72172   0.62801   0.41794   1.000
    C348    C    0.09738   0.67292   0.45550   1.000
    C349    C    0.59739   0.67292   0.45557   1.000
    C350    C    0.28939   0.51879   0.60436   1.000
    C351    C    0.78941   0.51879   0.60436   1.000
    C352    C    0.25695   0.57635   0.63892   1.000
    C353    C    0.75697   0.57635   0.63892   1.000
    C354    C    0.36234   0.52795   0.70043   1.000
    C355    C    0.86236   0.52795   0.70043   1.000
    C356    C    0.31018   0.41484   0.97070   1.000
    C357    C    0.81019   0.41484   0.97070   1.000
    C358    C    0.27707   0.37395   0.91828   1.000
    C359    C    0.77708   0.37395   0.91828   1.000
    C360    C    0.40138   0.32871   0.95561   1.000
    C361    C    0.90140   0.32871   0.95561   1.000
    C362    C    0.21093   0.48353   0.10449   1.000
    C363    C    0.71094   0.48353   0.10449   1.000
    C364    C    0.24346   0.42591   0.13900   1.000
    C365    C    0.74348   0.42591   0.13900   1.000
    C366    C    0.13805   0.47408   0.20050   1.000
    C367    C    0.63806   0.47408   0.20058   1.000
    C368    C    0.31124   0.08697   0.46840   1.000
    C369    C    0.81126   0.08697   0.46846   1.000
    C370    C    0.27848   0.12875   0.41659   1.000
    C371    C    0.77850   0.12875   0.41659   1.000
    C372    C    0.40290   0.17321   0.45483   1.000
    C373    C    0.90291   0.17321   0.45483   1.000
    C374    C    0.21104   0.01843   0.60185   1.000
    C375    C    0.71105   0.01843   0.60185   1.000
    C376    C    0.24359   0.07616   0.63619   1.000
    C377    C    0.74360   0.07616   0.63619   1.000
    C378    C    0.13832   0.02779   0.69802   1.000
    C379    C    0.63834   0.02779   0.69802   1.000
    C380    C    0.18948   0.91505   0.96859   1.000
    C381    C    0.68950   0.91505   0.96859   1.000
    C382    C    0.22274   0.87337   0.91600   1.000
    C383    C    0.72275   0.87337   0.91689   1.000
    C384    C    0.09834   0.82850   0.95470   1.000
    C385    C    0.59836   0.82850   0.95477   1.000
    C386    C    0.28873   0.98382   0.10197   1.000
    C387    C    0.78875   0.98382   0.10197   1.000
    C388    C    0.25612   0.92604   0.13629   1.000
    C389    C    0.75614   0.92604   0.13629   1.000
    C390    C    0.36135   0.97429   0.19818   1.000
    C391    C    0.86136   0.97429   0.19818   1.000
    C392    C    0.34362   0.93289   0.50267   1.000
    C393    C    0.84364   0.93289   0.50267   1.000
    C394    C    0.24200   0.84765   0.50142   1.000
    C395    C    0.74202   0.84765   0.50142   1.000
    C396    C    0.12255   0.49973   0.96141   1.000
    C397    C    0.62256   0.49973   0.96141   1.000
    C398    C    0.21327   0.53449   0.87805   1.000
    C399    C    0.71328   0.53449   0.87805   1.000
    C400    C    0.15587   0.06906   0.00262   1.000
    C401    C    0.65588   0.06906   0.00262   1.000
    C402    C    0.25695   0.15469   0.00214   1.000
    C403    C    0.75697   0.15469   0.00213   1.000
    C404    C    0.37748   0.50296   0.46126   1.000
    C405    C    0.87749   0.50296   0.46126   1.000
    C406    C    0.28708   0.46732   0.37800   1.000
    C407    C    0.78710   0.46732   0.37807   1.000
    C408    C    0.15689   0.43269   0.50549   1.000
    C409    C    0.65691   0.43269   0.50549   1.000
    C410    C    0.25851   0.34762   0.50300   1.000
    C411    C    0.75853   0.34762   0.50300   1.000
    C412    C    0.37755   0.99986   0.95890   1.000
    C413    C    0.87757   0.99986   0.95890   1.000
    C414    C    0.28737   0.03499   0.87543   1.000
    C415    C    0.78738   0.03499   0.87543   1.000
    C416    C    0.34434   0.56876   0.00536   1.000
    C417    C    0.84436   0.56876   0.00536   1.000
    C418    C    0.24293   0.65387   0.00310   1.000
    C419    C    0.74295   0.65387   0.00310   1.000
    C420    C    0.12248   0.00284   0.45874   1.000
    C421    C    0.62250   0.00284   0.45874   1.000
    C422    C    0.21246   0.96721   0.37538   1.000
    C423    C    0.71247   0.96722   0.37538   1.000
    O424    O    0.29455   0.53566   0.00268   1.000
    O425    O    0.22784   0.49304   0.05224   1.000
    O426    O    0.18365   0.50114   0.98070   1.000
    O427    O    0.27746   0.45870   0.98535   1.000
    O428    O    0.79456   0.53566   0.00268   1.000
    O429    O    0.72785   0.49304   0.05224   1.000
    O430    O    0.68367   0.50114   0.98070   1.000
    O431    O    0.77748   0.45870   0.98535   1.000
    O432    O    0.70559   0.03453   0.00131   1.000
    O433    O    0.77202   0.99191   0.05099   1.000
    O434    O    0.81643   0.99993   0.97945   1.000
    O435    O    0.72240   0.95753   0.98429   1.000
    O436    O    0.20557   0.03453   0.00131   1.000
    O437    O    0.27201   0.99191   0.05099   1.000
    O438    O    0.31642   0.99993   0.97945   1.000
    O439    O    0.22238   0.95753   0.98429   1.000
    O440    O    0.71834   0.14427   0.00016   1.000
    O441    O    0.21833   0.14427   0.00016   1.000
    O442    O    0.16779   0.10145   0.00041   1.000
    O443    O    0.66780   0.10145   0.00041   1.000
    O444    O    0.28162   0.64362   0.00145   1.000
    O445    O    0.78164   0.64362   0.00145   1.000
    O446    O    0.33233   0.60106   0.00259   1.000
    O447    O    0.83234   0.60106   0.00259   1.000
    O448    O    0.52929   0.93071   0.03424   1.000
    O449    O    0.02927   0.93071   0.03424   1.000
    O450    O    0.47001   0.42996   0.03685   1.000
    O451    O    0.97003   0.42996   0.03685   1.000
    O452    O    0.57722   0.93740   0.05956   1.000
    O453    O    0.54725   0.89755   0.06297   1.000
    O454    O    0.58648   0.90328   0.01818   1.000
    O455    O    0.07720   0.93740   0.05956   1.000
    O456    O    0.04723   0.89755   0.06297   1.000
    O457    O    0.08646   0.90328   0.01818   1.000
    O458    O    0.42203   0.43570   0.06236   1.000
    O459    O    0.45240   0.39604   0.06488   1.000
    O460    O    0.41305   0.40246   0.02024   1.000
    O461    O    0.92204   0.43569   0.06234   1.000
    O462    O    0.95241   0.39604   0.06488   1.000
    O463    O    0.91307   0.40246   0.02024   1.000
    O464    O    0.88214   0.09168   0.10228   1.000
    O465    O    0.38212   0.09168   0.10228   1.000
    O466    O    0.61734   0.59107   0.10419   1.000
    O467    O    0.11732   0.59107   0.10419   1.000
    O468    O    0.43292   0.07056   0.10972   1.000
    O469    O    0.93293   0.07056   0.10972   1.000
    O470    O    0.06655   0.56990   0.11184   1.000
    O471    O    0.56656   0.56990   0.11184   1.000
    O472    O    0.77245   0.95493   0.11913   1.000
    O473    O    0.82028   0.99191   0.12049   1.000
    O474    O    0.27243   0.95493   0.11913   1.000
    O475    O    0.32026   0.99191   0.12049   1.000
    O476    O    0.22720   0.45472   0.12174   1.000
    O477    O    0.17934   0.49797   0.12291   1.000
    O478    O    0.72721   0.45472   0.12174   1.000
    O479    O    0.67935   0.49797   0.12291   1.000
    O480    O    0.87641   0.03832   0.13004   1.000
    O481    O    0.90682   0.09257   0.14401   1.000
    O482    O    0.37639   0.03832   0.13004   1.000
    O483    O    0.40681   0.09257   0.14401   1.000
    O484    O    0.62314   0.54426   0.13223   1.000
    O485    O    0.59277   0.59217   0.14596   1.000
    O486    O    0.12312   0.54426   0.13223   1.000
    O487    O    0.09276   0.59217   0.14596   1.000
    O488    O    0.77825   0.92342   0.16514   1.000
    O489    O    0.27823   0.92342   0.16514   1.000
    O490    O    0.22127   0.42330   0.16791   1.000
    O491    O    0.72128   0.42330   0.16791   1.000
    O492    O    0.85658   0.98715   0.16859   1.000
    O493    O    0.35657   0.98715   0.16859   1.000
    O494    O    0.14290   0.49324   0.17092   1.000
    O495    O    0.64291   0.49324   0.17096   1.000
    O496    O    0.02359   0.97621   0.19990   1.000
    O497    O    0.52360   0.97621   0.19990   1.000
    O498    O    0.97580   0.47585   0.20239   1.000
    O499    O    0.47578   0.47585   0.20239   1.000
    O500    O    0.33085   0.94754   0.19609   1.000
    O501    O    0.29414   0.89355   0.22062   1.000
    O502    O    0.83086   0.94754   0.19609   1.000
    O503    O    0.79416   0.89355   0.22062   1.000
    O504    O    0.66857   0.44738   0.19870   1.000
    O505    O    0.70519   0.39352   0.22341   1.000
    O506    O    0.16856   0.44739   0.19867   1.000
    O507    O    0.20518   0.39352   0.22341   1.000
    O508    O    0.39518   0.97793   0.22349   1.000
    O509    O    0.89520   0.97793   0.22349   1.000
    O510    O    0.10423   0.47774   0.22586   1.000
    O511    O    0.60425   0.47774   0.22590   1.000
    O512    O    0.26646   0.84616   0.23670   1.000
    O513    O    0.76648   0.84616   0.23670   1.000
    O514    O    0.97250   0.98025   0.23790   1.000
    O515    O    0.04929   0.98022   0.25100   1.000
    O516    O    0.47250   0.98025   0.23790   1.000
    O517    O    0.54930   0.98022   0.25115   1.000
    O518    O    0.73274   0.34619   0.23951   1.000
    O519    O    0.23273   0.34619   0.23951   1.000
    O520    O    0.02694   0.48003   0.24035   1.000
    O521    O    0.95017   0.47996   0.25365   1.000
    O522    O    0.52693   0.48003   0.24035   1.000
    O523    O    0.45015   0.47996   0.25365   1.000
    O524    O    0.81928   0.85452   0.25451   1.000
    O525    O    0.77310   0.87723   0.27059   1.000
    O526    O    0.31926   0.85452   0.25455   1.000
    O527    O    0.27308   0.87723   0.27059   1.000
    O528    O    0.91870   0.98465   0.28359   1.000
    O529    O    0.41868   0.98465   0.28359   1.000
    O530    O    0.67995   0.35456   0.25732   1.000
    O531    O    0.72617   0.37731   0.27329   1.000
    O532    O    0.17994   0.35456   0.25732   1.000
    O533    O    0.22616   0.37731   0.27334   1.000
    O534    O    0.08081   0.48458   0.28598   1.000
    O535    O    0.58082   0.48458   0.28598   1.000
    O536    O    0.11655   0.98014   0.26708   1.000
    O537    O    0.61656   0.98014   0.26722   1.000
    O538    O    0.88293   0.47987   0.26977   1.000
    O539    O    0.38291   0.47987   0.26977   1.000
    O540    O    0.07305   0.98385   0.31027   1.000
    O541    O    0.57306   0.98385   0.31041   1.000
    O542    O    0.42648   0.48368   0.31292   1.000
    O543    O    0.92650   0.48368   0.31292   1.000
    O544    O    0.87449   0.98881   0.32688   1.000
    O545    O    0.94222   0.98879   0.34238   1.000
    O546    O    0.37447   0.98881   0.32688   1.000
    O547    O    0.44220   0.98879   0.34238   1.000
    O548    O    0.20004   0.72882   0.33963   1.000
    O549    O    0.70005   0.72882   0.33963   1.000
    O550    O    0.30006   0.23091   0.33997   1.000
    O551    O    0.80008   0.23091   0.33997   1.000
    O552    O    0.12509   0.48889   0.32922   1.000
    O553    O    0.05738   0.48881   0.34477   1.000
    O554    O    0.62511   0.48889   0.32922   1.000
    O555    O    0.55740   0.48881   0.34477   1.000
    O556    O    0.64523   0.74341   0.34675   1.000
    O557    O    0.14521   0.74342   0.34675   1.000
    O558    O    0.35496   0.24539   0.34716   1.000
    O559    O    0.85497   0.24539   0.34716   1.000
    O560    O    0.51978   0.98801   0.35596   1.000
    O561    O    0.60077   0.98566   0.37058   1.000
    O562    O    0.01978   0.98801   0.35596   1.000
    O563    O    0.10075   0.98566   0.37058   1.000
    O564    O    0.97984   0.48798   0.35842   1.000
    O565    O    0.89889   0.48562   0.37311   1.000
    O566    O    0.47984   0.48798   0.35842   1.000
    O567    O    0.39888   0.48562   0.37311   1.000
    O568    O    0.18874   0.76087   0.37149   1.000
    O569    O    0.17137   0.70846   0.38438   1.000
    O570    O    0.68875   0.76087   0.37149   1.000
    O571    O    0.67138   0.70846   0.38438   1.000
    O572    O    0.81162   0.26244   0.37229   1.000
    O573    O    0.82886   0.20982   0.38430   1.000
    O574    O    0.31160   0.26244   0.37229   1.000
    O575    O    0.32885   0.20982   0.38430   1.000
    O576    O    0.46800   0.99117   0.39353   1.000
    O577    O    0.96802   0.99117   0.39353   1.000
    O578    O    0.03164   0.49129   0.39594   1.000
    O579    O    0.53165   0.49129   0.39594   1.000
    O580    O    0.17524   0.97617   0.38550   1.000
    O581    O    0.67525   0.97617   0.38550   1.000
    O582    O    0.32437   0.47622   0.38810   1.000
    O583    O    0.82438   0.47622   0.38814   1.000
    O584    O    0.63027   0.99398   0.42718   1.000
    O585    O    0.13025   0.99398   0.42718   1.000
    O586    O    0.36957   0.49404   0.42973   1.000
    O587    O    0.86958   0.49404   0.42973   1.000
    O588    O    0.80621   0.15477   0.41284   1.000
    O589    O    0.86842   0.17700   0.43196   1.000
    O590    O    0.30620   0.15477   0.41284   1.000
    O591    O    0.36841   0.17700   0.43196   1.000
    O592    O    0.19401   0.65392   0.41379   1.000
    O593    O    0.13184   0.67638   0.43257   1.000
    O594    O    0.69402   0.65392   0.41379   1.000
    O595    O    0.63186   0.67638   0.43261   1.000
    O596    O    0.29486   0.10786   0.44249   1.000
    O597    O    0.79488   0.10786   0.44253   1.000
    O598    O    0.70538   0.60752   0.44422   1.000
    O599    O    0.20536   0.60752   0.44422   1.000
    O600    O    0.93817   0.19726   0.46037   1.000
    O601    O    0.89450   0.14324   0.47297   1.000
    O602    O    0.43816   0.19726   0.46037   1.000
    O603    O    0.39449   0.14324   0.47297   1.000
    O604    O    0.06215   0.69701   0.46071   1.000
    O605    O    0.10580   0.64326   0.47415   1.000
    O606    O    0.56216   0.69701   0.46075   1.000
    O607    O    0.60582   0.64326   0.47418   1.000
    O608    O    0.06799   0.17103   0.46071   1.000
    O609    O    0.56801   0.17103   0.46071   1.000
    O610    O    0.93229   0.67063   0.46173   1.000
    O611    O    0.43227   0.67063   0.46158   1.000
    O612    O    0.18360   0.00123   0.47935   1.000
    O613    O    0.68361   0.00123   0.47935   1.000
    O614    O    0.31641   0.50142   0.48196   1.000
    O615    O    0.81642   0.50142   0.48196   1.000
    O616    O    0.01673   0.20975   0.46583   1.000
    O617    O    0.09329   0.22217   0.47203   1.000
    O618    O    0.51673   0.20975   0.46583   1.000
    O619    O    0.59331   0.22217   0.47203   1.000
    O620    O    0.96335   0.25634   0.47153   1.000
    O621    O    0.46334   0.25634   0.47153   1.000
    O622    O    0.98361   0.70949   0.46611   1.000
    O623    O    0.03703   0.75625   0.47092   1.000
    O624    O    0.48361   0.70949   0.46596   1.000
    O625    O    0.53705   0.75625   0.47092   1.000
    O626    O    0.40706   0.72193   0.47207   1.000
    O627    O    0.90707   0.72193   0.47221   1.000
    O628    O    0.34866   0.10012   0.47976   1.000
    O629    O    0.27798   0.04330   0.48418   1.000
    O630    O    0.84868   0.10012   0.47979   1.000
    O631    O    0.77799   0.04330   0.48421   1.000
    O632    O    0.65163   0.60032   0.48165   1.000
    O633    O    0.72219   0.54346   0.48658   1.000
    O634    O    0.15162   0.60032   0.48165   1.000
    O635    O    0.22218   0.54346   0.48658   1.000
    O636    O    0.08102   0.80007   0.47669   1.000
    O637    O    0.01341   0.81516   0.48053   1.000
    O638    O    0.58104   0.80007   0.47669   1.000
    O639    O    0.51341   0.81516   0.48053   1.000
    O640    O    0.41939   0.29999   0.47813   1.000
    O641    O    0.48705   0.31510   0.48211   1.000
    O642    O    0.91941   0.29999   0.47813   1.000
    O643    O    0.98704   0.31510   0.48207   1.000
    O644    O    0.84007   0.73731   0.47896   1.000
    O645    O    0.88316   0.78140   0.48261   1.000
    O646    O    0.34006   0.73731   0.47896   1.000
    O647    O    0.38314   0.78140   0.48261   1.000
    O648    O    0.66033   0.23751   0.47895   1.000
    O649    O    0.61730   0.28147   0.48338   1.000
    O650    O    0.16032   0.23751   0.47895   1.000
    O651    O    0.11728   0.28147   0.48338   1.000
    O652    O    0.43606   0.82787   0.48612   1.000
    O653    O    0.48713   0.86641   0.48827   1.000
    O654    O    0.93607   0.82787   0.48612   1.000
    O655    O    0.98715   0.86641   0.48827   1.000
    O656    O    0.06441   0.32781   0.48773   1.000
    O657    O    0.01340   0.36624   0.49060   1.000
    O658    O    0.56443   0.32781   0.48776   1.000
    O659    O    0.51341   0.36624   0.49066   1.000
    O660    O    0.85595   0.84252   0.49250   1.000
    O661    O    0.35593   0.84252   0.49250   1.000
    O662    O    0.14456   0.34246   0.49419   1.000
    O663    O    0.64458   0.34246   0.49419   1.000
    O664    O    0.41410   0.09839   0.51834   1.000
    O665    O    0.91411   0.09839   0.51834   1.000
    O666    O    0.08625   0.59910   0.52028   1.000
    O667    O    0.58627   0.59910   0.52028   1.000
    O668    O    0.28070   0.85793   0.49967   1.000
    O669    O    0.33151   0.90055   0.50030   1.000
    O670    O    0.78072   0.85793   0.49967   1.000
    O671    O    0.83153   0.90055   0.50030   1.000
    O672    O    0.21982   0.35787   0.50146   1.000
    O673    O    0.16901   0.40041   0.50270   1.000
    O674    O    0.71984   0.35787   0.50146   1.000
    O675    O    0.66903   0.40040   0.50270   1.000
    O676    O    0.79418   0.96626   0.50132   1.000
    O677    O    0.72789   0.00903   0.55091   1.000
    O678    O    0.29417   0.96626   0.50132   1.000
    O679    O    0.22787   0.00903   0.55091   1.000
    O680    O    0.70613   0.46628   0.50407   1.000
    O681    O    0.77238   0.50933   0.55351   1.000
    O682    O    0.20612   0.46628   0.50407   1.000
    O683    O    0.27237   0.50933   0.55351   1.000
    O684    O    0.97107   0.07098   0.53456   1.000
    O685    O    0.47122   0.07098   0.53456   1.000
    O686    O    0.02926   0.57170   0.53697   1.000
    O687    O    0.52927   0.57170   0.53697   1.000
    O688    O    0.42312   0.06402   0.55961   1.000
    O689    O    0.45293   0.10392   0.56339   1.000
    O690    O    0.92313   0.06402   0.55961   1.000
    O691    O    0.95294   0.10392   0.56339   1.000
    O692    O    0.07740   0.56550   0.56219   1.000
    O693    O    0.04733   0.60527   0.56520   1.000
    O694    O    0.57741   0.56550   0.56218   1.000
    O695    O    0.54735   0.60527   0.56520   1.000
    O696    O    0.61763   0.91061   0.60196   1.000
    O697    O    0.11761   0.91061   0.60196   1.000
    O698    O    0.38285   0.41114   0.60391   1.000
    O699    O    0.88287   0.41114   0.60391   1.000
    O700    O    0.56683   0.93166   0.60955   1.000
    O701    O    0.06681   0.93166   0.60955   1.000
    O702    O    0.43366   0.43224   0.61161   1.000
    O703    O    0.93367   0.43224   0.61161   1.000
    O704    O    0.22731   0.04730   0.61902   1.000
    O705    O    0.17950   0.00392   0.62033   1.000
    O706    O    0.72733   0.04730   0.61902   1.000
    O707    O    0.67951   0.00392   0.62033   1.000
    O708    O    0.27317   0.54757   0.62164   1.000
    O709    O    0.32097   0.50427   0.62276   1.000
    O710    O    0.77319   0.54757   0.62164   1.000
    O711    O    0.82099   0.50427   0.62276   1.000
    O712    O    0.12336   0.95750   0.62982   1.000
    O713    O    0.09305   0.90954   0.64374   1.000
    O714    O    0.62338   0.95749   0.62982   1.000
    O715    O    0.59306   0.90954   0.64374   1.000
    O716    O    0.37712   0.45790   0.63201   1.000
    O717    O    0.40740   0.40991   0.64568   1.000
    O718    O    0.87714   0.45790   0.63201   1.000
    O719    O    0.90741   0.40991   0.64568   1.000
    O720    O    0.22145   0.07875   0.66513   1.000
    O721    O    0.72146   0.07875   0.66513   1.000
    O722    O    0.64315   0.00861   0.66841   1.000
    O723    O    0.14314   0.00861   0.66841   1.000
    O724    O    0.27917   0.57887   0.66783   1.000
    O725    O    0.77918   0.57887   0.66783   1.000
    O726    O    0.85746   0.50885   0.67079   1.000
    O727    O    0.35745   0.50885   0.67079   1.000
    O728    O    0.47604   0.02564   0.69986   1.000
    O729    O    0.97606   0.02565   0.69986   1.000
    O730    O    0.02464   0.52596   0.70231   1.000
    O731    O    0.52466   0.52596   0.70231   1.000
    O732    O    0.16882   0.05456   0.69605   1.000
    O733    O    0.20546   0.10855   0.72057   1.000
    O734    O    0.66883   0.05456   0.69605   1.000
    O735    O    0.70547   0.10855   0.72057   1.000
    O736    O    0.83188   0.55468   0.69859   1.000
    O737    O    0.79533   0.60852   0.72335   1.000
    O738    O    0.33186   0.55467   0.69859   1.000
    O739    O    0.29531   0.60852   0.72335   1.000
    O740    O    0.10451   0.02412   0.72335   1.000
    O741    O    0.60452   0.02412   0.72335   1.000
    O742    O    0.39615   0.52422   0.72575   1.000
    O743    O    0.89616   0.52422   0.72575   1.000
    O744    O    0.26786   0.65586   0.73497   1.000
    O745    O    0.76788   0.65586   0.73497   1.000
    O746    O    0.23303   0.15598   0.73653   1.000
    O747    O    0.73304   0.15598   0.73653   1.000
    O748    O    0.52721   0.02170   0.73783   1.000
    O749    O    0.45042   0.02173   0.75098   1.000
    O750    O    0.02721   0.02171   0.73783   1.000
    O751    O    0.95043   0.02173   0.75098   1.000
    O752    O    0.97346   0.52183   0.74024   1.000
    O753    O    0.05022   0.52189   0.75358   1.000
    O754    O    0.47346   0.52183   0.74024   1.000
    O755    O    0.55023   0.52189   0.75358   1.000
    O756    O    0.18026   0.14751   0.75440   1.000
    O757    O    0.22652   0.12488   0.77043   1.000
    O758    O    0.68028   0.14751   0.75440   1.000
    O759    O    0.72653   0.12488   0.77043   1.000
    O760    O    0.58108   0.01740   0.78347   1.000
    O761    O    0.08107   0.01740   0.78345   1.000
    O762    O    0.82063   0.64737   0.75731   1.000
    O763    O    0.77434   0.62465   0.77327   1.000
    O764    O    0.32062   0.64737   0.75731   1.000
    O765    O    0.27433   0.62465   0.77327   1.000
    O766    O    0.91955   0.51731   0.78585   1.000
    O767    O    0.41953   0.51731   0.78585   1.000
    O768    O    0.88319   0.02184   0.76710   1.000
    O769    O    0.38318   0.02183   0.76710   1.000
    O770    O    0.11745   0.52199   0.76973   1.000
    O771    O    0.61746   0.52199   0.76974   1.000
    O772    O    0.92675   0.01824   0.81027   1.000
    O773    O    0.42673   0.01824   0.81027   1.000
    O774    O    0.07384   0.51824   0.81288   1.000
    O775    O    0.57385   0.51824   0.81288   1.000
    O776    O    0.12533   0.00718   0.82671   1.000
    O777    O    0.05762   0.01335   0.84226   1.000
    O778    O    0.62534   0.00718   0.82673   1.000
    O779    O    0.55764   0.01335   0.84229   1.000
    O780    O    0.37522   0.51301   0.82907   1.000
    O781    O    0.44291   0.51311   0.84467   1.000
    O782    O    0.87523   0.51301   0.82907   1.000
    O783    O    0.94293   0.51311   0.84467   1.000
    O784    O    0.79781   0.27300   0.84010   1.000
    O785    O    0.29780   0.27300   0.84014   1.000
    O786    O    0.70220   0.77115   0.84035   1.000
    O787    O    0.20218   0.77115   0.84035   1.000
    O788    O    0.85267   0.25834   0.84697   1.000
    O789    O    0.35265   0.25833   0.84697   1.000
    O790    O    0.64729   0.75655   0.84726   1.000
    O791    O    0.14727   0.75655   0.84726   1.000
    O792    O    0.98008   0.01416   0.85593   1.000
    O793    O    0.89912   0.01661   0.87062   1.000
    O794    O    0.48008   0.01416   0.85593   1.000
    O795    O    0.39911   0.01661   0.87062   1.000
    O796    O    0.52046   0.51397   0.85834   1.000
    O797    O    0.60139   0.51644   0.87310   1.000
    O798    O    0.02046   0.51397   0.85834   1.000
    O799    O    0.10138   0.51644   0.87309   1.000
    O800    O    0.30930   0.24095   0.87198   1.000
    O801    O    0.32688   0.29334   0.88470   1.000
    O802    O    0.80932   0.24095   0.87195   1.000
    O803    O    0.82690   0.29334   0.88470   1.000
    O804    O    0.19048   0.73956   0.87262   1.000
    O805    O    0.17297   0.79214   0.88452   1.000
    O806    O    0.69049   0.73956   0.87262   1.000
    O807    O    0.67298   0.79214   0.88452   1.000
    O808    O    0.53191   0.00617   0.89346   1.000
    O809    O    0.03190   0.00618   0.89346   1.000
    O810    O    0.46860   0.51068   0.89585   1.000
    O811    O    0.96862   0.51068   0.89585   1.000
    O812    O    0.82464   0.02612   0.88556   1.000
    O813    O    0.32462   0.02612   0.88556   1.000
    O814    O    0.17592   0.52575   0.88812   1.000
    O815    O    0.67593   0.52575   0.88813   1.000
    O816    O    0.36971   0.00855   0.92730   1.000
    O817    O    0.86973   0.00855   0.92730   1.000
    O818    O    0.13056   0.50837   0.92980   1.000
    O819    O    0.63057   0.50837   0.92981   1.000
    O820    O    0.19517   0.84726   0.91263   1.000
    O821    O    0.13298   0.82482   0.93198   1.000
    O822    O    0.69519   0.84726   0.91308   1.000
    O823    O    0.63299   0.82482   0.93202   1.000
    O824    O    0.80466   0.34796   0.91409   1.000
    O825    O    0.86681   0.32534   0.93275   1.000
    O826    O    0.30464   0.34796   0.91409   1.000
    O827    O    0.36680   0.32534   0.93275   1.000
    O828    O    0.20611   0.89421   0.94229   1.000
    O829    O    0.70612   0.89421   0.94274   1.000
    O830    O    0.29362   0.39439   0.94449   1.000
    O831    O    0.79364   0.39439   0.94449   1.000
    O832    O    0.06313   0.80438   0.96018   1.000
    O833    O    0.10651   0.85850   0.97287   1.000
    O834    O    0.56315   0.80438   0.96021   1.000
    O835    O    0.60652   0.85850   0.97290   1.000
    O836    O    0.43329   0.83047   0.96047   1.000
    O837    O    0.93330   0.83047   0.96047   1.000
    O838    O    0.93664   0.30462   0.96070   1.000
    O839    O    0.89318   0.35840   0.97421   1.000
    O840    O    0.43663   0.30462   0.96070   1.000
    O841    O    0.39316   0.35840   0.97421   1.000
    O842    O    0.56641   0.33115   0.96168   1.000
    O843    O    0.06640   0.33115   0.96171   1.000
    O844    O    0.98461   0.79179   0.96558   1.000
    O845    O    0.90806   0.77931   0.97179   1.000
    O846    O    0.48461   0.79179   0.96558   1.000
    O847    O    0.40804   0.77931   0.97179   1.000
    O848    O    0.53805   0.74522   0.97123   1.000
    O849    O    0.03803   0.74522   0.97123   1.000
    O850    O    0.51516   0.29220   0.96603   1.000
    O851    O    0.46183   0.24535   0.97072   1.000
    O852    O    0.01516   0.29220   0.96603   1.000
    O853    O    0.96184   0.24535   0.97072   1.000
    O854    O    0.09172   0.27989   0.97225   1.000
    O855    O    0.59173   0.27989   0.97223   1.000
    O856    O    0.15208   0.90178   0.97981   1.000
    O857    O    0.65209   0.90178   0.97981   1.000
    O858    O    0.34756   0.40146   0.98175   1.000
    O859    O    0.84758   0.40146   0.98175   1.000
    O860    O    0.41794   0.20145   0.97642   1.000
    O861    O    0.48560   0.18646   0.98032   1.000
    O862    O    0.91796   0.20145   0.97642   1.000
    O863    O    0.98560   0.18646   0.98032   1.000
    O864    O    0.58202   0.70157   0.97778   1.000
    O865    O    0.51438   0.68642   0.98175   1.000
    O866    O    0.08200   0.70157   0.97778   1.000
    O867    O    0.01438   0.68642   0.98176   1.000
    O868    O    0.84105   0.76394   0.97876   1.000
    O869    O    0.88412   0.71999   0.98314   1.000
    O870    O    0.34104   0.76394   0.97876   1.000
    O871    O    0.38411   0.71999   0.98315   1.000
    O872    O    0.65874   0.26462   0.97913   1.000
    O873    O    0.61576   0.22046   0.98267   1.000
    O874    O    0.15873   0.26462   0.97915   1.000
    O875    O    0.11575   0.22046   0.98269   1.000
    O876    O    0.06295   0.17388   0.98606   1.000
    O877    O    0.01197   0.13524   0.98808   1.000
    O878    O    0.56296   0.17388   0.98606   1.000
    O879    O    0.51198   0.13524   0.98808   1.000
    O880    O    0.43701   0.67366   0.98746   1.000
    O881    O    0.48807   0.63525   0.99027   1.000
    O882    O    0.93703   0.67366   0.98746   1.000
    O883    O    0.98809   0.63525   0.99028   1.000
    O884    O    0.14310   0.15943   0.99267   1.000
    O885    O    0.64312   0.15943   0.99267   1.000
    O886    O    0.85688   0.65901   0.99400   1.000
    O887    O    0.35687   0.65901   0.99401   1.000
loop_
    _geom_bond_atom_site_label_1
    _geom_bond_atom_site_label_2
    _geom_bond_distance
    _geom_bond_site_symmetry_2
    _ccdc_geom_bond_type
    C2     O424      0.99381      .   S
    C416   O424      0.99381      .   S
    C2     O425      1.06605      .   S
    C362   O425      1.06605      .   S
    C2     O426      1.00888  1_554   S
    C396   O426      1.00888      .   S
    C2     O427      1.02159  1_554   S
    C356   O427      1.02159      .   S
    C3     O428      0.99381      .   S
    C417   O428      0.99381      .   S
    C3     O429      1.06605      .   S
    C363   O429      1.06605      .   S
    C3     O430      1.00888  1_554   S
    C397   O430      1.00888      .   S
    C3     O431      1.02159  1_554   S
    C357   O431      1.02159      .   S
    C7     O432      1.01063      .   S
    C401   O432      1.01063      .   S
    C7     O433      1.03760  1_545   S
    C387   O433      1.03760      .   S
    C7     O434      1.01841  1_544   S
    C413   O434      1.01841      .   S
    C7     O435      1.00628  1_544   S
    C381   O435      1.00628      .   S
    C6     O436      1.01064      .   S
    C400   O436      1.01064      .   S
    C6     O437      1.03760  1_545   S
    C386   O437      1.03760      .   S
    C6     O438      1.01841  1_544   S
    C412   O438      1.01841      .   S
    C6     O439      1.00627  1_544   S
    C380   O439      1.00627      .   S
    C403   O440      0.62547      .   S
    C213   O440      0.62547  1_556   S
    C402   O441      0.62547      .   S
    C212   O441      0.62547  1_556   S
    C400   O442      0.64971      .   S
    C212   O442      0.64971  1_556   S
    C401   O443      0.64971      .   S
    C213   O443      0.64971  1_556   S
    C418   O444      0.62548      .   S
    C300   O444      0.62548  1_556   S
    C419   O445      0.62548      .   S
    C301   O445      0.62548  1_556   S
    C416   O446      0.64968      .   S
    C300   O446      0.64968  1_556   S
    C417   O447      0.64969      .   S
    C301   O447      0.64969  1_556   S
    C137   O448      0.55052      .   S
    C315   O448      0.55052      .   S
    C136   O449      0.55052      .   S
    C314   O449      0.55052      .   S
    C56    O450      0.55050      .   S
    C226   O450      0.55050      .   S
    C57    O451      0.55049      .   S
    C227   O451      0.55049      .   S
    C315   O452      0.54716      .   S
    C141   O452      0.54716      .   S
    C315   O453      0.54911      .   S
    C139   O453      0.54911      .   S
    C315   O454      0.73977      .   S
    C317   O454      0.73977  1_556   S
    C314   O455      0.54715      .   S
    C140   O455      0.54715      .   S
    C314   O456      0.54912      .   S
    C138   O456      0.54912      .   S
    C314   O457      0.73977      .   S
    C316   O457      0.73977  1_556   S
    C226   O458      0.54718      .   S
    C60    O458      0.54718      .   S
    C226   O459      0.54912      .   S
    C58    O459      0.54912      .   S
    C226   O460      0.73976      .   S
    C228   O460      0.73976  1_556   S
    C227   O461      0.54692      .   S
    C61    O461      0.54692      .   S
    C227   O462      0.54914      .   S
    C59    O462      0.54914      .   S
    C227   O463      0.73975      .   S
    C229   O463      0.73975  1_556   S
    C157   O464      0.54900      .   S
    C337   O464      0.54900      .   S
    C156   O465      0.54900      .   S
    C336   O465      0.54900      .   S
    C77    O466      0.54897      .   S
    C249   O466      0.54897      .   S
    C76    O467      0.54896      .   S
    C248   O467      0.54896      .   S
    C160   O468      0.54925      .   S
    C336   O468      0.54925      .   S
    C161   O469      0.54925      .   S
    C337   O469      0.54925      .   S
    C80    O470      0.54928      .   S
    C248   O470      0.54928      .   S
    C81    O471      0.54929      .   S
    C249   O471      0.54929      .   S
    C387   O472      0.69395      .   S
    C389   O472      0.69395      .   S
    C387   O473      0.62240      .   S
    C339   O473      0.62240  1_545   S
    C386   O474      0.69396      .   S
    C388   O474      0.69396      .   S
    C386   O475      0.62241      .   S
    C338   O475      0.62241  1_545   S
    C362   O476      0.69388      .   S
    C364   O476      0.69388      .   S
    C362   O477      0.66362      .   S
    C250   O477      0.66362      .   S
    C363   O478      0.69388      .   S
    C365   O478      0.69388      .   S
    C363   O479      0.66361      .   S
    C251   O479      0.66361      .   S
    C337   O480      0.84469      .   S
    C339   O480      0.84469      .   S
    C337   O481      0.54904      .   S
    C159   O481      0.54904      .   S
    C336   O482      0.84468      .   S
    C338   O482      0.84468      .   S
    C336   O483      0.54905      .   S
    C158   O483      0.54905      .   S
    C249   O484      0.74060      .   S
    C251   O484      0.74060      .   S
    C249   O485      0.54900      .   S
    C79    O485      0.54900      .   S
    C248   O486      0.74061      .   S
    C250   O486      0.74061      .   S
    C248   O487      0.54899      .   S
    C78    O487      0.54899      .   S
    C389   O488      0.65828      .   S
    C341   O488      0.65828      .   S
    C388   O489      0.65829      .   S
    C340   O489      0.65829      .   S
    C364   O490      0.65988      .   S
    C252   O490      0.65988      .   S
    C365   O491      0.65988      .   S
    C253   O491      0.65988      .   S
    C339   O492      0.63127  1_545   S
    C391   O492      0.63127      .   S
    C338   O493      0.63127  1_545   S
    C390   O493      0.63127      .   S
    C250   O494      0.68770      .   S
    C366   O494      0.68770      .   S
    C251   O495      0.68836      .   S
    C367   O495      0.68836      .   S
    C150   O496      0.54327      .   S
    C328   O496      0.54327      .   S
    C151   O497      0.54327      .   S
    C329   O497      0.54327      .   S
    C71    O498      0.54351      .   S
    C241   O498      0.54351      .   S
    C70    O499      0.54351      .   S
    C240   O499      0.54351      .   S
    C340   O500      0.69534      .   S
    C390   O500      0.69534      .   S
    C340   O501      0.74243      .   S
    C342   O501      0.74243      .   S
    C341   O502      0.69535      .   S
    C391   O502      0.69535      .   S
    C341   O503      0.74243      .   S
    C343   O503      0.74243      .   S
    C253   O504      0.69515      .   S
    C367   O504      0.69515      .   S
    C253   O505      0.74105      .   S
    C255   O505      0.74105      .   S
    C252   O506      0.69511      .   S
    C366   O506      0.69511      .   S
    C252   O507      0.74106      .   S
    C254   O507      0.74106      .   S
    C390   O508      0.71874      .   S
    C330   O508      0.71874      .   S
    C391   O509      0.71874      .   S
    C331   O509      0.71874      .   S
    C366   O510      0.71936      .   S
    C242   O510      0.71936      .   S
    C367   O511      0.71882      .   S
    C243   O511      0.71882      .   S
    C162   O512      0.54776      .   S
    C342   O512      0.54776      .   S
    C163   O513      0.54776      .   S
    C343   O513      0.54776      .   S
    C328   O514      0.69930  1_455   S
    C331   O514      0.69930      .   S
    C328   O515      0.69261      .   S
    C326   O515      0.69261      .   S
    C329   O516      0.69952      .   S
    C330   O516      0.69952      .   S
    C329   O517      0.69452      .   S
    C327   O517      0.69452      .   S
    C83    O518      0.54772      .   S
    C255   O518      0.54772      .   S
    C82    O519      0.54772      .   S
    C254   O519      0.54772      .   S
    C241   O520      0.69927  1_655   S
    C242   O520      0.69927      .   S
    C241   O521      0.69439      .   S
    C239   O521      0.69439      .   S
    C240   O522      0.69950      .   S
    C243   O522      0.69950      .   S
    C240   O523      0.69439      .   S
    C238   O523      0.69439      .   S
    C343   O524      0.54942      .   S
    C165   O524      0.54942      .   S
    C343   O525      0.55055      .   S
    C167   O525      0.55055      .   S
    C342   O526      0.54959      .   S
    C164   O526      0.54959      .   S
    C342   O527      0.55055      .   S
    C166   O527      0.55055      .   S
    C331   O528      0.69871      .   S
    C333   O528      0.69871      .   S
    C330   O529      0.69871      .   S
    C332   O529      0.69871      .   S
    C255   O530      0.54958      .   S
    C85    O530      0.54958      .   S
    C255   O531      0.54988      .   S
    C87    O531      0.54988      .   S
    C254   O532      0.54958      .   S
    C84    O532      0.54958      .   S
    C254   O533      0.55061      .   S
    C86    O533      0.55061      .   S
    C242   O534      0.69855      .   S
    C244   O534      0.69855      .   S
    C243   O535      0.69855      .   S
    C245   O535      0.69855      .   S
    C148   O536      0.54290      .   S
    C326   O536      0.54290      .   S
    C149   O537      0.54371      .   S
    C327   O537      0.54371      .   S
    C69    O538      0.54371      .   S
    C239   O538      0.54371      .   S
    C68    O539      0.54371      .   S
    C238   O539      0.54371      .   S
    C326   O540      0.70416      .   S
    C324   O540      0.70416      .   S
    C327   O541      0.70140      .   S
    C325   O541      0.70140      .   S
    C238   O542      0.70136      .   S
    C236   O542      0.70136      .   S
    C239   O543      0.70136      .   S
    C237   O543      0.70136      .   S
    C333   O544      0.54498      .   S
    C153   O544      0.54498      .   S
    C333   O545      0.69854      .   S
    C335   O545      0.69854      .   S
    C332   O546      0.54499      .   S
    C152   O546      0.54499      .   S
    C332   O547      0.69854      .   S
    C334   O547      0.69854      .   S
    C26    O548      0.54787      .   S
    C188   O548      0.54787      .   S
    C27    O549      0.54786      .   S
    C189   O549      0.54786      .   S
    C106   O550      0.54787      .   S
    C276   O550      0.54787      .   S
    C107   O551      0.54787      .   S
    C277   O551      0.54787      .   S
    C244   O552      0.54505      .   S
    C72    O552      0.54505      .   S
    C244   O553      0.69851      .   S
    C246   O553      0.69851      .   S
    C245   O554      0.54505      .   S
    C73    O554      0.54505      .   S
    C245   O555      0.69851      .   S
    C247   O555      0.69851      .   S
    C25    O556      0.54907      .   S
    C189   O556      0.54907      .   S
    C24    O557      0.54907      .   S
    C188   O557      0.54907      .   S
    C104   O558      0.54908      .   S
    C276   O558      0.54908      .   S
    C105   O559      0.54908      .   S
    C277   O559      0.54908      .   S
    C325   O560      0.70065      .   S
    C334   O560      0.70065      .   S
    C325   O561      0.75107      .   S
    C323   O561      0.75107      .   S
    C324   O562      0.70042      .   S
    C335   O562      0.70042  1_655   S
    C324   O563      0.75107      .   S
    C322   O563      0.75107      .   S
    C237   O564      0.70043      .   S
    C246   O564      0.70043  1_455   S
    C237   O565      0.75099      .   S
    C235   O565      0.75099      .   S
    C236   O566      0.70065      .   S
    C247   O566      0.70065      .   S
    C236   O567      0.75100      .   S
    C234   O567      0.75100      .   S
    C188   O568      0.55004      .   S
    C22    O568      0.55004      .   S
    C188   O569      0.74185      .   S
    C186   O569      0.74185      .   S
    C189   O570      0.55005      .   S
    C23    O570      0.55005      .   S
    C189   O571      0.74184      .   S
    C187   O571      0.74184      .   S
    C277   O572      0.55004      .   S
    C103   O572      0.55004      .   S
    C277   O573      0.74174      .   S
    C275   O573      0.74174      .   S
    C276   O574      0.55004      .   S
    C102   O574      0.55004      .   S
    C276   O575      0.74174      .   S
    C274   O575      0.74174      .   S
    C334   O576      0.54385      .   S
    C154   O576      0.54385      .   S
    C335   O577      0.54385      .   S
    C155   O577      0.54385      .   S
    C246   O578      0.54380      .   S
    C74    O578      0.54380      .   S
    C247   O579      0.54380      .   S
    C75    O579      0.54380      .   S
    C422   O580      0.62746      .   S
    C322   O580      0.62746      .   S
    C423   O581      0.62745      .   S
    C323   O581      0.62745      .   S
    C406   O582      0.62767      .   S
    C234   O582      0.62767      .   S
    C407   O583      0.62745      .   S
    C235   O583      0.62745      .   S
    C323   O584      0.64912      .   S
    C421   O584      0.64912  1_545   S
    C322   O585      0.64911      .   S
    C420   O585      0.64911  1_545   S
    C234   O586      0.64924      .   S
    C404   O586      0.64924      .   S
    C235   O587      0.64924      .   S
    C405   O587      0.64924      .   S
    C275   O588      0.65939      .   S
    C371   O588      0.65939      .   S
    C275   O589      0.69497      .   S
    C373   O589      0.69497      .   S
    C274   O590      0.65938      .   S
    C370   O590      0.65938      .   S
    C274   O591      0.69498      .   S
    C372   O591      0.69498      .   S
    C186   O592      0.65937      .   S
    C346   O592      0.65937      .   S
    C186   O593      0.69459      .   S
    C348   O593      0.69459      .   S
    C187   O594      0.65937      .   S
    C347   O594      0.65937      .   S
    C187   O595      0.69502      .   S
    C349   O595      0.69502      .   S
    C370   O596      0.69190      .   S
    C368   O596      0.69190      .   S
    C371   O597      0.69232      .   S
    C369   O597      0.69232      .   S
    C347   O598      0.69237      .   S
    C345   O598      0.69237      .   S
    C346   O599      0.69238      .   S
    C344   O599      0.69238      .   S
    C373   O600      0.71841      .   S
    C265   O600      0.71841      .   S
    C373   O601      0.68751      .   S
    C273   O601      0.68751      .   S
    C372   O602      0.71841      .   S
    C264   O602      0.71841      .   S
    C372   O603      0.68751      .   S
    C272   O603      0.68751      .   S
    C348   O604      0.71858      .   S
    C176   O604      0.71858      .   S
    C348   O605      0.68794      .   S
    C184   O605      0.68794      .   S
    C349   O606      0.71848      .   S
    C177   O606      0.71848      .   S
    C349   O607      0.68758      .   S
    C185   O607      0.68758      .   S
    C90    O608      0.54512      .   S
    C262   O608      0.54512      .   S
    C91    O609      0.54512      .   S
    C263   O609      0.54512      .   S
    C11    O610      0.54512      .   S
    C175   O610      0.54512      .   S
    C10    O611      0.54466      .   S
    C174   O611      0.54466      .   S
    C420   O612      1.01910      .   S
    C4     O612      1.01910  1_565   S
    C421   O613      1.01909      .   S
    C5     O613      1.01909  1_565   S
    C404   O614      1.01897      .   S
    C0     O614      1.01897      .   S
    C405   O615      1.01897      .   S
    C1     O615      1.01897      .   S
    C262   O616      0.69947      .   S
    C265   O616      0.69947  1_655   S
    C262   O617      0.69728      .   S
    C260   O617      0.69728      .   S
    C263   O618      0.69969      .   S
    C264   O618      0.69969      .   S
    C263   O619      0.69728      .   S
    C261   O619      0.69728      .   S
    C265   O620      0.69944      .   S
    C267   O620      0.69944      .   S
    C264   O621      0.69945      .   S
    C266   O621      0.69945      .   S
    C176   O622      0.69948  1_455   S
    C175   O622      0.69948      .   S
    C176   O623      0.69946      .   S
    C178   O623      0.69946      .   S
    C177   O624      0.69970      .   S
    C174   O624      0.69970      .   S
    C177   O625      0.69946      .   S
    C179   O625      0.69946      .   S
    C174   O626      0.69779      .   S
    C172   O626      0.69779      .   S
    C175   O627      0.69732      .   S
    C173   O627      0.69732      .   S
    C368   O628      0.66403      .   S
    C272   O628      0.66403      .   S
    C368   O629      1.02795      .   S
    C4     O629      1.02795  1_565   S
    C369   O630      0.66383      .   S
    C273   O630      0.66383      .   S
    C369   O631      1.02778      .   S
    C5     O631      1.02778  1_565   S
    C345   O632      0.66383      .   S
    C185   O632      0.66383      .   S
    C345   O633      1.02845      .   S
    C1     O633      1.02845      .   S
    C344   O634      0.66383      .   S
    C184   O634      0.66383      .   S
    C344   O635      1.02845      .   S
    C0     O635      1.02845      .   S
    C178   O636      0.54481      .   S
    C12    O636      0.54481      .   S
    C178   O637      0.69582      .   S
    C181   O637      0.69582  1_655   S
    C179   O638      0.54481      .   S
    C13    O638      0.54481      .   S
    C179   O639      0.69600      .   S
    C180   O639      0.69600      .   S
    C266   O640      0.54483      .   S
    C92    O640      0.54483      .   S
    C266   O641      0.69597      .   S
    C269   O641      0.69597      .   S
    C267   O642      0.54482      .   S
    C93    O642      0.54482      .   S
    C267   O643      0.69571      .   S
    C268   O643      0.69571  1_455   S
    C173   O644      0.54331      .   S
    C9     O644      0.54331      .   S
    C173   O645      0.70069      .   S
    C171   O645      0.70069      .   S
    C172   O646      0.54331      .   S
    C8     O646      0.54331      .   S
    C172   O647      0.70069      .   S
    C170   O647      0.70069      .   S
    C261   O648      0.54331      .   S
    C89    O648      0.54331      .   S
    C261   O649      0.70063      .   S
    C259   O649      0.70063      .   S
    C260   O650      0.54331      .   S
    C88    O650      0.54331      .   S
    C260   O651      0.70064      .   S
    C258   O651      0.70064      .   S
    C180   O652      0.70066      .   S
    C170   O652      0.70066      .   S
    C180   O653      0.54358      .   S
    C14    O653      0.54358      .   S
    C181   O654      0.70065      .   S
    C171   O654      0.70065      .   S
    C181   O655      0.54359      .   S
    C15    O655      0.54359      .   S
    C268   O656      0.70065      .   S
    C258   O656      0.70065      .   S
    C268   O657      0.54359      .   S
    C94    O657      0.54359      .   S
    C269   O658      0.70064      .   S
    C259   O658      0.70064      .   S
    C269   O659      0.54357      .   S
    C95    O659      0.54357      .   S
    C171   O660      0.75399      .   S
    C169   O660      0.75399      .   S
    C170   O661      0.75399      .   S
    C168   O661      0.75399      .   S
    C258   O662      0.75395      .   S
    C256   O662      0.75395      .   S
    C259   O663      0.75395      .   S
    C257   O663      0.75395      .   S
    C272   O664      0.73983      .   S
    C270   O664      0.73983      .   S
    C273   O665      0.73983      .   S
    C271   O665      0.73983      .   S
    C184   O666      0.73983      .   S
    C182   O666      0.73983      .   S
    C185   O667      0.73982      .   S
    C183   O667      0.73982      .   S
    C168   O668      0.62549      .   S
    C394   O668      0.62549      .   S
    C168   O669      0.64983      .   S
    C392   O669      0.64983      .   S
    C169   O670      0.62549      .   S
    C395   O670      0.62549      .   S
    C169   O671      0.64982      .   S
    C393   O671      0.64982      .   S
    C256   O672      0.62542      .   S
    C410   O672      0.62542      .   S
    C256   O673      0.64991      .   S
    C408   O673      0.64991      .   S
    C257   O674      0.62541      .   S
    C411   O674      0.62541      .   S
    C257   O675      0.64992      .   S
    C409   O675      0.64992      .   S
    C5     O676      0.99320      .   S
    C393   O676      0.99320      .   S
    C5     O677      1.04146  1_565   S
    C375   O677      1.04146      .   S
    C4     O678      0.99319      .   S
    C392   O678      0.99319      .   S
    C4     O679      1.04146  1_565   S
    C374   O679      1.04146      .   S
    C1     O680      0.99214      .   S
    C409   O680      0.99214      .   S
    C1     O681      1.04058      .   S
    C351   O681      1.04058      .   S
    C0     O682      0.99215      .   S
    C408   O682      0.99215      .   S
    C0     O683      1.04058      .   S
    C350   O683      1.04058      .   S
    C97    O684      0.54842  1_455   S
    C271   O684      0.54842      .   S
    C96    O685      0.55052      .   S
    C270   O685      0.55052      .   S
    C16    O686      0.55049      .   S
    C182   O686      0.55049      .   S
    C17    O687      0.55049      .   S
    C183   O687      0.55049      .   S
    C270   O688      0.54717      .   S
    C100   O688      0.54717      .   S
    C270   O689      0.54914      .   S
    C98    O689      0.54914      .   S
    C271   O690      0.54717      .   S
    C101   O690      0.54717      .   S
    C271   O691      0.54914      .   S
    C99    O691      0.54914      .   S
    C182   O692      0.54723      .   S
    C20    O692      0.54723      .   S
    C182   O693      0.54920      .   S
    C18    O693      0.54920      .   S
    C183   O694      0.54717      .   S
    C21    O694      0.54717      .   S
    C183   O695      0.54920      .   S
    C19    O695      0.54920      .   S
    C117   O696      0.54903      .   S
    C293   O696      0.54903      .   S
    C116   O697      0.54903      .   S
    C292   O697      0.54903      .   S
    C36    O698      0.54904      .   S
    C204   O698      0.54904      .   S
    C37    O699      0.54904      .   S
    C205   O699      0.54904      .   S
    C121   O700      0.54927      .   S
    C293   O700      0.54927      .   S
    C120   O701      0.54927      .   S
    C292   O701      0.54927      .   S
    C40    O702      0.54930      .   S
    C204   O702      0.54930      .   S
    C41    O703      0.54930      .   S
    C205   O703      0.54930      .   S
    C374   O704      0.69389      .   S
    C376   O704      0.69389      .   S
    C374   O705      0.66342      .   S
    C294   O705      0.66342  1_565   S
    C375   O706      0.69389      .   S
    C377   O706      0.69389      .   S
    C375   O707      0.66343      .   S
    C295   O707      0.66343  1_565   S
    C350   O708      0.69380      .   S
    C352   O708      0.69380      .   S
    C350   O709      0.66366      .   S
    C206   O709      0.66366      .   S
    C351   O710      0.69380      .   S
    C353   O710      0.69380      .   S
    C351   O711      0.66366      .   S
    C207   O711      0.66366      .   S
    C292   O712      0.74037      .   S
    C294   O712      0.74037      .   S
    C292   O713      0.54899      .   S
    C118   O713      0.54899      .   S
    C293   O714      0.74036      .   S
    C295   O714      0.74036      .   S
    C293   O715      0.54899      .   S
    C119   O715      0.54899      .   S
    C204   O716      0.74062      .   S
    C206   O716      0.74062      .   S
    C204   O717      0.54889      .   S
    C38    O717      0.54889      .   S
    C205   O718      0.74062      .   S
    C207   O718      0.74062      .   S
    C205   O719      0.54889      .   S
    C39    O719      0.54889      .   S
    C376   O720      0.65992      .   S
    C296   O720      0.65992      .   S
    C377   O721      0.65992      .   S
    C297   O721      0.65992      .   S
    C295   O722      0.68884  1_565   S
    C379   O722      0.68884      .   S
    C294   O723      0.68884  1_565   S
    C378   O723      0.68884      .   S
    C352   O724      0.65996      .   S
    C208   O724      0.65996      .   S
    C353   O725      0.65996      .   S
    C209   O725      0.65996      .   S
    C207   O726      0.68838      .   S
    C355   O726      0.68838      .   S
    C206   O727      0.68838      .   S
    C354   O727      0.68838      .   S
    C110   O728      0.54346      .   S
    C284   O728      0.54346      .   S
    C111   O729      0.54346      .   S
    C285   O729      0.54346      .   S
    C30    O730      0.54341      .   S
    C196   O730      0.54341      .   S
    C31    O731      0.54341      .   S
    C197   O731      0.54341      .   S
    C296   O732      0.69529      .   S
    C378   O732      0.69529      .   S
    C296   O733      0.74112      .   S
    C298   O733      0.74112      .   S
    C297   O734      0.69529      .   S
    C379   O734      0.69529      .   S
    C297   O735      0.74112      .   S
    C299   O735      0.74112      .   S
    C209   O736      0.69521      .   S
    C355   O736      0.69521      .   S
    C209   O737      0.74105      .   S
    C211   O737      0.74105      .   S
    C208   O738      0.69520      .   S
    C354   O738      0.69520      .   S
    C208   O739      0.74105      .   S
    C210   O739      0.74105      .   S
    C378   O740      0.71888      .   S
    C286   O740      0.71888      .   S
    C379   O741      0.71887      .   S
    C287   O741      0.71887      .   S
    C354   O742      0.71884      .   S
    C198   O742      0.71884      .   S
    C355   O743      0.71884      .   S
    C199   O743      0.71884      .   S
    C42    O744      0.58604      .   S
    C210   O744      0.58604      .   S
    C43    O745      0.58604      .   S
    C211   O745      0.58604      .   S
    C122   O746      0.54777      .   S
    C298   O746      0.54777      .   S
    C123   O747      0.54777      .   S
    C299   O747      0.54777      .   S
    C284   O748      0.69952      .   S
    C287   O748      0.69952      .   S
    C284   O749      0.69248      .   S
    C282   O749      0.69248      .   S
    C285   O750      0.69929  1_655   S
    C286   O750      0.69929      .   S
    C285   O751      0.69248      .   S
    C283   O751      0.69248      .   S
    C196   O752      0.69927  1_455   S
    C199   O752      0.69927      .   S
    C196   O753      0.69447      .   S
    C194   O753      0.69447      .   S
    C197   O754      0.69949      .   S
    C198   O754      0.69949      .   S
    C197   O755      0.69447      .   S
    C195   O755      0.69447      .   S
    C298   O756      0.54957      .   S
    C124   O756      0.54957      .   S
    C298   O757      0.55049      .   S
    C126   O757      0.55049      .   S
    C299   O758      0.54957      .   S
    C125   O758      0.54957      .   S
    C299   O759      0.55049      .   S
    C127   O759      0.55049      .   S
    C287   O760      0.69851      .   S
    C289   O760      0.69851      .   S
    C286   O761      0.69804      .   S
    C288   O761      0.69804      .   S
    C211   O762      0.54958      .   S
    C45    O762      0.54958      .   S
    C211   O763      0.55050      .   S
    C47    O763      0.55050      .   S
    C210   O764      0.54958      .   S
    C44    O764      0.54958      .   S
    C210   O765      0.55050      .   S
    C46    O765      0.55050      .   S
    C199   O766      0.69864      .   S
    C201   O766      0.69864      .   S
    C198   O767      0.69865      .   S
    C200   O767      0.69865      .   S
    C109   O768      0.54292      .   S
    C283   O768      0.54292      .   S
    C108   O769      0.54292      .   S
    C282   O769      0.54292      .   S
    C28    O770      0.54381      .   S
    C194   O770      0.54381      .   S
    C29    O771      0.54375      .   S
    C195   O771      0.54375      .   S
    C283   O772      0.70413      .   S
    C281   O772      0.70413      .   S
    C282   O773      0.70413      .   S
    C280   O773      0.70413      .   S
    C194   O774      0.70123      .   S
    C192   O774      0.70123      .   S
    C195   O775      0.70123      .   S
    C193   O775      0.70123      .   S
    C288   O776      0.56208      .   S
    C112   O776      0.56208      .   S
    C288   O777      0.69892      .   S
    C290   O777      0.69892      .   S
    C289   O778      0.56193      .   S
    C113   O778      0.56193      .   S
    C289   O779      0.69859      .   S
    C291   O779      0.69859      .   S
    C200   O780      0.54504      .   S
    C32    O780      0.54504      .   S
    C200   O781      0.69850      .   S
    C202   O781      0.69850      .   S
    C201   O782      0.54505      .   S
    C33    O782      0.54505      .   S
    C201   O783      0.69850      .   S
    C203   O783      0.69850      .   S
    C67    O784      0.54840      .   S
    C233   O784      0.54840      .   S
    C66    O785      0.54787      .   S
    C232   O785      0.54787      .   S
    C147   O786      0.54787      .   S
    C321   O786      0.54787      .   S
    C146   O787      0.54787      .   S
    C320   O787      0.54787      .   S
    C65    O788      0.54908      .   S
    C233   O788      0.54908      .   S
    C64    O789      0.54908      .   S
    C232   O789      0.54908      .   S
    C145   O790      0.54910      .   S
    C321   O790      0.54910      .   S
    C144   O791      0.54910      .   S
    C320   O791      0.54910      .   S
    C281   O792      0.70047      .   S
    C290   O792      0.70047  1_455   S
    C281   O793      0.75111      .   S
    C279   O793      0.75111      .   S
    C280   O794      0.70070      .   S
    C291   O794      0.70070      .   S
    C280   O795      0.75111      .   S
    C278   O795      0.75111      .   S
    C193   O796      0.70071      .   S
    C202   O796      0.70071      .   S
    C193   O797      0.75105      .   S
    C191   O797      0.75105      .   S
    C192   O798      0.70048      .   S
    C203   O798      0.70048  1_655   S
    C192   O799      0.75092      .   S
    C190   O799      0.75092      .   S
    C232   O800      0.55005      .   S
    C62    O800      0.55005      .   S
    C232   O801      0.74185      .   S
    C230   O801      0.74185      .   S
    C233   O802      0.54979      .   S
    C63    O802      0.54979      .   S
    C233   O803      0.74184      .   S
    C231   O803      0.74184      .   S
    C320   O804      0.55003      .   S
    C142   O804      0.55003      .   S
    C320   O805      0.74173      .   S
    C318   O805      0.74173      .   S
    C321   O806      0.55003      .   S
    C143   O806      0.55003      .   S
    C321   O807      0.74173      .   S
    C319   O807      0.74173      .   S
    C291   O808      0.55604      .   S
    C115   O808      0.55604      .   S
    C290   O809      0.55604      .   S
    C114   O809      0.55604      .   S
    C202   O810      0.54386      .   S
    C34    O810      0.54386      .   S
    C203   O811      0.54387      .   S
    C35    O811      0.54387      .   S
    C415   O812      0.62756      .   S
    C279   O812      0.62756      .   S
    C414   O813      0.62755      .   S
    C278   O813      0.62755      .   S
    C398   O814      0.62747      .   S
    C190   O814      0.62747      .   S
    C399   O815      0.62753      .   S
    C191   O815      0.62753      .   S
    C278   O816      0.64910      .   S
    C412   O816      0.64910  1_565   S
    C279   O817      0.64910      .   S
    C413   O817      0.64910  1_565   S
    C190   O818      0.64935      .   S
    C396   O818      0.64935      .   S
    C191   O819      0.64917      .   S
    C397   O819      0.64917      .   S
    C318   O820      0.65848      .   S
    C382   O820      0.65848      .   S
    C318   O821      0.69455      .   S
    C384   O821      0.69455      .   S
    C319   O822      0.65939      .   S
    C383   O822      0.65939      .   S
    C319   O823      0.69499      .   S
    C385   O823      0.69499      .   S
    C231   O824      0.65939      .   S
    C359   O824      0.65939      .   S
    C231   O825      0.69504      .   S
    C361   O825      0.69504      .   S
    C230   O826      0.65939      .   S
    C358   O826      0.65939      .   S
    C230   O827      0.69505      .   S
    C360   O827      0.69505      .   S
    C382   O828      0.69870      .   S
    C380   O828      0.69870      .   S
    C383   O829      0.69237      .   S
    C381   O829      0.69237      .   S
    C358   O830      0.69239      .   S
    C356   O830      0.69239      .   S
    C359   O831      0.69238      .   S
    C357   O831      0.69238      .   S
    C384   O832      0.71844      .   S
    C308   O832      0.71844      .   S
    C384   O833      0.68800      .   S
    C316   O833      0.68800      .   S
    C385   O834      0.71834      .   S
    C309   O834      0.71834      .   S
    C385   O835      0.68764      .   S
    C317   O835      0.68764      .   S
    C130   O836      0.54509      .   S
    C306   O836      0.54509      .   S
    C131   O837      0.54508      .   S
    C307   O837      0.54508      .   S
    C361   O838      0.71830      .   S
    C221   O838      0.71830      .   S
    C361   O839      0.68760      .   S
    C229   O839      0.68760      .   S
    C360   O840      0.71830      .   S
    C220   O840      0.71830      .   S
    C360   O841      0.68760      .   S
    C228   O841      0.68760      .   S
    C51    O842      0.54519      .   S
    C219   O842      0.54519      .   S
    C50    O843      0.54508      .   S
    C218   O843      0.54508      .   S
    C307   O844      0.69950      .   S
    C308   O844      0.69950  1_455   S
    C307   O845      0.69721      .   S
    C305   O845      0.69721      .   S
    C306   O846      0.69972      .   S
    C309   O846      0.69972      .   S
    C306   O847      0.69721      .   S
    C304   O847      0.69721      .   S
    C309   O848      0.69947      .   S
    C311   O848      0.69947      .   S
    C308   O849      0.69946      .   S
    C310   O849      0.69946      .   S
    C220   O850      0.69972      .   S
    C219   O850      0.69972      .   S
    C220   O851      0.69944      .   S
    C222   O851      0.69944      .   S
    C221   O852      0.69950  1_655   S
    C218   O852      0.69950      .   S
    C221   O853      0.69944      .   S
    C223   O853      0.69944      .   S
    C218   O854      0.69718      .   S
    C216   O854      0.69718      .   S
    C219   O855      0.69713      .   S
    C217   O855      0.69713      .   S
    C380   O856      0.66380      .   S
    C316   O856      0.66380      .   S
    C381   O857      0.66380      .   S
    C317   O857      0.66380      .   S
    C356   O858      0.66377      .   S
    C228   O858      0.66377      .   S
    C357   O859      0.66377      .   S
    C229   O859      0.66377      .   S
    C222   O860      0.54478      .   S
    C52    O860      0.54478      .   S
    C222   O861      0.69603      .   S
    C225   O861      0.69603      .   S
    C223   O862      0.54479      .   S
    C53    O862      0.54479      .   S
    C223   O863      0.69584      .   S
    C224   O863      0.69584  1_455   S
    C311   O864      0.54483      .   S
    C133   O864      0.54483      .   S
    C311   O865      0.69601      .   S
    C312   O865      0.69601      .   S
    C310   O866      0.54483      .   S
    C132   O866      0.54483      .   S
    C310   O867      0.69586      .   S
    C313   O867      0.69586  1_655   S
    C305   O868      0.54330      .   S
    C129   O868      0.54330      .   S
    C305   O869      0.70061      .   S
    C303   O869      0.70061      .   S
    C304   O870      0.54330      .   S
    C128   O870      0.54330      .   S
    C304   O871      0.70064      .   S
    C302   O871      0.70064      .   S
    C217   O872      0.54329      .   S
    C49    O872      0.54329      .   S
    C217   O873      0.70068      .   S
    C215   O873      0.70068      .   S
    C216   O874      0.54328      .   S
    C48    O874      0.54328      .   S
    C216   O875      0.70065      .   S
    C214   O875      0.70065      .   S
    C224   O876      0.70062      .   S
    C214   O876      0.70062      .   S
    C224   O877      0.54360      .   S
    C54    O877      0.54360      .   S
    C225   O878      0.70063      .   S
    C215   O878      0.70063      .   S
    C225   O879      0.54360      .   S
    C55    O879      0.54360      .   S
    C312   O880      0.70066      .   S
    C302   O880      0.70066      .   S
    C312   O881      0.54360      .   S
    C134   O881      0.54360      .   S
    C313   O882      0.70065      .   S
    C303   O882      0.70065      .   S
    C313   O883      0.54358      .   S
    C135   O883      0.54358      .   S
    C214   O884      0.75364      .   S
    C212   O884      0.75364      .   S
    C215   O885      0.75364      .   S
    C213   O885      0.75364      .   S
    C303   O886      0.75379      .   S
    C301   O886      0.75379      .   S
    C302   O887      0.75376      .   S
    C300   O887      0.75376      .   S
