# CIF file generated by openbabel 2.4.90, see http://openbabel.sf.net
data_I
_chemical_name_common ''
_cell_length_a 12.365
_cell_length_b 20.163
_cell_length_c 20.18
_cell_angle_alpha 102.302
_cell_angle_beta 94.912
_cell_angle_gamma 94.696
_space_group_name_H-M_alt 'P 1'
_space_group_name_Hall 'P 1'
loop_
    _symmetry_equiv_pos_as_xyz
    x,y,z
loop_
    _atom_site_label
    _atom_site_type_symbol
    _atom_site_fract_x
    _atom_site_fract_y
    _atom_site_fract_z
    _atom_site_occupancy
    H0      H    0.49825   0.19955   0.53473   1.000
    H1      H    0.56519   0.21851   0.61940   1.000
    H2      H    0.53804   0.13972   0.69346   1.000
    H3      H    0.45261   0.06168   0.66272   1.000
    H4      H    0.36257   0.03485   0.54802   1.000
    H5      H    0.38283   0.09268   0.49310   1.000
    H6      H    0.31449   0.24745   0.70115   1.000
    H7      H    0.45866   0.24606   0.71573   1.000
    H8      H    0.19923   0.14142   0.65926   1.000
    H9      H    0.25849   0.06241   0.64193   1.000
    H10     H    0.30369   0.20015   0.51526   1.000
    H11     H    0.22441   0.22018   0.58590   1.000
    H12     H    0.85883   0.87194   0.46533   1.000
    H13     H    0.91418   0.88852   0.55247   1.000
    H14     H    0.98458   0.03067   0.43247   1.000
    H15     H    0.90035   0.95334   0.39585   1.000
    H16     H    0.02812   0.99435   0.60216   1.000
    H17     H    0.05938   0.05403   0.55079   1.000
    H18     H    0.97939   0.84646   0.37561   1.000
    H19     H    0.12184   0.84447   0.39777   1.000
    H20     H    0.17639   0.02837   0.46334   1.000
    H21     H    0.23475   0.94870   0.44792   1.000
    H22     H    0.19561   0.86807   0.51663   1.000
    H23     H    0.10603   0.88636   0.58000   1.000
    H24     H    0.66820   0.84913   0.35131   1.000
    H25     H    0.26866   0.86490   0.30965   1.000
    H26     H    0.38595   0.95253   0.39836   1.000
    H27     H    0.65163   0.74485   0.25814   1.000
    H28     H    0.53489   0.65751   0.16780   1.000
    H29     H    0.25062   0.75665   0.21955   1.000
    H30     H    0.92763   0.14974   0.39946   1.000
    H31     H    0.98361   0.24686   0.34721   1.000
    H32     H    0.64785   0.24712   0.46788   1.000
    H33     H    0.95149   0.36122   0.32410   1.000
    H34     H    0.68320   0.46300   0.40475   1.000
    H35     H    0.62017   0.36173   0.44952   1.000
    H36     H    0.12441   0.33742   0.62359   1.000
    H37     H    0.98289   0.51010   0.80226   1.000
    H38     H    0.18162   0.50683   0.79705   1.000
    H39     H    0.93357   0.29381   0.57351   1.000
    H40     H    0.73484   0.29722   0.57840   1.000
    H41     H    0.79184   0.46102   0.75703   1.000
    H42     H    0.77509   0.84236   0.62081   1.000
    H43     H    0.42956   0.83952   0.73168   1.000
    H44     H    0.48787   0.93665   0.68015   1.000
    H45     H    0.80085   0.72741   0.63896   1.000
    H46     H    0.73545   0.62588   0.68276   1.000
    H47     H    0.46181   0.72628   0.75677   1.000
    H48     H    0.99907   0.53487   0.19934   1.000
    H49     H    0.06546   0.61966   0.21862   1.000
    H50     H    0.03737   0.69402   0.14009   1.000
    H51     H    0.95190   0.66337   0.06196   1.000
    H52     H    0.86266   0.54848   0.03478   1.000
    H53     H    0.88365   0.49339   0.09243   1.000
    H54     H    0.81406   0.70112   0.24743   1.000
    H55     H    0.95814   0.71589   0.24623   1.000
    H56     H    0.69873   0.65933   0.14130   1.000
    H57     H    0.75787   0.64226   0.06242   1.000
    H58     H    0.80464   0.51517   0.19975   1.000
    H59     H    0.72481   0.58571   0.21982   1.000
    H60     H    0.35878   0.46514   0.87171   1.000
    H61     H    0.41349   0.55239   0.88856   1.000
    H62     H    0.48534   0.43205   0.03041   1.000
    H63     H    0.40117   0.39544   0.95294   1.000
    H64     H    0.52731   0.60200   0.99449   1.000
    H65     H    0.55921   0.55050   0.05406   1.000
    H66     H    0.48005   0.37555   0.84628   1.000
    H67     H    0.62233   0.39788   0.84449   1.000
    H68     H    0.67690   0.46320   0.02842   1.000
    H69     H    0.73519   0.44802   0.94886   1.000
    H70     H    0.69523   0.51689   0.86841   1.000
    H71     H    0.60513   0.58216   0.88666   1.000
    H72     H    0.16794   0.35136   0.84908   1.000
    H73     H    0.76872   0.30992   0.86487   1.000
    H74     H    0.88600   0.39888   0.95223   1.000
    H75     H    0.15128   0.25802   0.74500   1.000
    H76     H    0.03456   0.16769   0.65777   1.000
    H77     H    0.75050   0.21959   0.75673   1.000
    H78     H    0.42856   0.39911   0.15032   1.000
    H79     H    0.48410   0.34693   0.24772   1.000
    H80     H    0.14766   0.46763   0.24607   1.000
    H81     H    0.45144   0.32410   0.36170   1.000
    H82     H    0.18225   0.40484   0.46221   1.000
    H83     H    0.11940   0.44942   0.36064   1.000
    H84     H    0.62460   0.62338   0.33734   1.000
    H85     H    0.48302   0.80236   0.50969   1.000
    H86     H    0.68175   0.79721   0.50630   1.000
    H87     H    0.43377   0.57316   0.29380   1.000
    H88     H    0.23505   0.57801   0.29739   1.000
    H89     H    0.29200   0.75701   0.46075   1.000
    H90     H    0.27525   0.62107   0.84291   1.000
    H91     H    0.92953   0.73248   0.83905   1.000
    C92     C    0.66436   0.71058   0.42017   1.000
    C93     C    0.59259   0.66248   0.37438   1.000
    H94     H    0.98794   0.68110   0.93642   1.000
    H95     H    0.30128   0.63915   0.72818   1.000
    H96     H    0.23583   0.68280   0.62600   1.000
    H97     H    0.96182   0.75728   0.72588   1.000
    C98     C    0.49048   0.19448   0.58715   1.000
    C99     C    0.46266   0.11596   0.66168   1.000
    C100    C    0.37332   0.08886   0.54580   1.000
    C101    C    0.38423   0.22111   0.68338   1.000
    C102    C    0.27021   0.11673   0.64085   1.000
    C103    C    0.29441   0.19431   0.56742   1.000
    C104    C    0.93004   0.89490   0.50149   1.000
    C105    C    0.97210   0.97608   0.43181   1.000
    C106    C    0.04581   0.99965   0.55104   1.000
    C107    C    0.05006   0.87050   0.41200   1.000
    C108    C    0.16206   0.97375   0.46250   1.000
    C109    C    0.12361   0.89377   0.53150   1.000
    C110    C    0.53402   0.90532   0.38049   1.000
    C111    C    0.58098   0.85242   0.34152   1.000
    C112    C    0.51757   0.80228   0.28990   1.000
    C113    C    0.40208   0.80592   0.27863   1.000
    C114    C    0.35602   0.86114   0.31886   1.000
    C115    C    0.42025   0.90957   0.36801   1.000
    C116    C    0.56414   0.74786   0.24889   1.000
    C117    C    0.50039   0.69965   0.19940   1.000
    C118    C    0.38603   0.70247   0.18851   1.000
    C119    C    0.33849   0.75480   0.22795   1.000
    C120    C    0.78461   0.19306   0.43750   1.000
    C121    C    0.87980   0.19310   0.40200   1.000
    C122    C    0.91044   0.24682   0.37380   1.000
    C123    C    0.84857   0.30381   0.37904   1.000
    C124    C    0.75238   0.30402   0.41430   1.000
    C125    C    0.72166   0.24735   0.44203   1.000
    C126    C    0.87941   0.36075   0.35171   1.000
    C127    C    0.82081   0.41713   0.36108   1.000
    C128    C    0.72681   0.41764   0.39711   1.000
    C129    C    0.69246   0.36195   0.42200   1.000
    C130    C    0.16424   0.42042   0.71061   1.000
    C131    C    0.09243   0.37455   0.66263   1.000
    C132    C    0.97841   0.37607   0.66299   1.000
    C133    C    0.93787   0.42497   0.71538   1.000
    C134    C    0.01352   0.47219   0.76318   1.000
    C135    C    0.12398   0.47053   0.76053   1.000
    C136    C    0.90289   0.33038   0.61376   1.000
    C137    C    0.79244   0.33204   0.61633   1.000
    C138    C    0.75209   0.37891   0.66916   1.000
    C139    C    0.82387   0.42439   0.71758   1.000
    C140    C    0.63523   0.89522   0.64709   1.000
    C141    C    0.69915   0.84154   0.64445   1.000
    C142    C    0.66636   0.78439   0.67103   1.000
    C143    C    0.56771   0.78389   0.70381   1.000
    C144    C    0.50472   0.84021   0.70704   1.000
    C145    C    0.53684   0.89400   0.67876   1.000
    C146    C    0.72684   0.72674   0.66472   1.000
    C147    C    0.69114   0.67094   0.68917   1.000
    C148    C    0.59501   0.67102   0.72319   1.000
    C149    C    0.53552   0.72698   0.73000   1.000
    C150    C    0.99088   0.58736   0.19445   1.000
    C151    C    0.96213   0.66217   0.11618   1.000
    C152    C    0.87365   0.54613   0.08870   1.000
    C153    C    0.88387   0.68348   0.22116   1.000
    C154    C    0.76980   0.64105   0.11668   1.000
    C155    C    0.79491   0.56738   0.19402   1.000
    C156    C    0.42979   0.50136   0.89482   1.000
    C157    C    0.47271   0.43147   0.97583   1.000
    C158    C    0.54546   0.55086   0.99973   1.000
    C159    C    0.55051   0.41206   0.87043   1.000
    C160    C    0.66242   0.46248   0.97381   1.000
    C161    C    0.62314   0.53163   0.89400   1.000
    C162    C    0.03393   0.38082   0.90510   1.000
    C163    C    0.08079   0.34165   0.85235   1.000
    C164    C    0.01736   0.28995   0.80231   1.000
    C165    C    0.90192   0.27873   0.80593   1.000
    C166    C    0.85598   0.31910   0.86107   1.000
    C167    C    0.92023   0.36840   0.90936   1.000
    C168    C    0.06385   0.24883   0.74798   1.000
    C169    C    0.00000   0.19932   0.69980   1.000
    C170    C    0.88577   0.18844   0.70262   1.000
    C171    C    0.83831   0.22796   0.75488   1.000
    C172    C    0.28501   0.43721   0.19281   1.000
    C173    C    0.38040   0.40237   0.19340   1.000
    C174    C    0.41080   0.37360   0.24726   1.000
    C175    C    0.34850   0.37888   0.30380   1.000
    C176    C    0.25213   0.41416   0.30350   1.000
    C177    C    0.22161   0.44178   0.24673   1.000
    C178    C    0.37923   0.35165   0.36095   1.000
    C179    C    0.32035   0.36110   0.41703   1.000
    C180    C    0.22614   0.39714   0.41708   1.000
    C181    C    0.19188   0.42202   0.36123   1.000
    C182    C    0.47860   0.66282   0.37594   1.000
    C183    C    0.43804   0.71531   0.42474   1.000
    C184    C    0.51364   0.76322   0.47186   1.000
    C185    C    0.62410   0.76060   0.47017   1.000
    C186    C    0.40309   0.61348   0.33037   1.000
    C187    C    0.29263   0.61603   0.33208   1.000
    C188    C    0.25225   0.66897   0.37883   1.000
    C189    C    0.32403   0.71749   0.42419   1.000
    C190    C    0.13537   0.64770   0.89538   1.000
    C191    C    0.19931   0.64485   0.84188   1.000
    C192    C    0.16657   0.67143   0.78466   1.000
    C193    C    0.06784   0.70434   0.78386   1.000
    C194    C    0.00480   0.70776   0.83999   1.000
    C195    C    0.03695   0.67955   0.89300   1.000
    C196    C    0.22718   0.66496   0.72723   1.000
    C197    C    0.19144   0.68933   0.67131   1.000
    C198    C    0.09520   0.72342   0.67107   1.000
    C199    C    0.03562   0.73121   0.72683   1.000
    N200    N    0.47632   0.12101   0.58938   1.000
    N201    N    0.39544   0.22970   0.61194   1.000
    N202    N    0.36873   0.14933   0.68604   1.000
    N203    N    0.27836   0.12223   0.56946   1.000
    N204    N    0.94741   0.96895   0.50185   1.000
    N205    N    0.02755   0.85983   0.48137   1.000
    N206    N    0.06865   0.94281   0.41202   1.000
    N207    N    0.14295   0.96630   0.53203   1.000
    N208    N    0.97645   0.58981   0.12105   1.000
    N209    N    0.89572   0.61197   0.22958   1.000
    N210    N    0.86808   0.68633   0.14946   1.000
    N211    N    0.77860   0.56960   0.12202   1.000
    N212    N    0.44741   0.50156   0.96880   1.000
    N213    N    0.52737   0.48141   0.85987   1.000
    N214    N    0.56932   0.41187   0.94268   1.000
    N215    N    0.64269   0.53202   0.96648   1.000
loop_
    _geom_bond_atom_site_label_1
    _geom_bond_atom_site_label_2
    _geom_bond_distance
    _geom_bond_site_symmetry_2
    _ccdc_geom_bond_type
    H68    C160      1.09807  1_554   S
    H62    C157      1.09658  1_554   S
    H52    C152      1.09649      .   S
    H65    C158      1.09668  1_554   S
    H51    C151      1.09632      .   S
    H57    C154      1.09800      .   S
    C152   H53       1.09819      .   S
    C152   N208      1.49897      .   S
    C152   N211      1.46564      .   S
    C151   N208      1.50665      .   S
    C151   H50       1.09724  1_655   S
    C151   N210      1.45873      .   S
    C154   N211      1.47953      .   S
    C154   H56       1.09758      .   S
    C154   N210      1.47345      .   S
    N208   C150      1.48851      .   S
    N211   C155      1.46040      .   S
    N210   C153      1.45732      .   S
    H78    C173      1.08874      .   S
    H28    C117      1.08884      .   S
    C118   C117      1.41998      .   S
    C118   C119      1.38420      .   S
    C172   C173      1.42195      .   S
    C172   C177      1.38645      .   S
    C173   C174      1.37603      .   S
    C155   H58       1.09826      .   S
    C155   H59       1.09855      .   S
    C155   N209      1.50517      .   S
    C150   H48       1.09567      .   S
    C150   H49       1.09626  1_655   S
    C150   N209      1.49064      .   S
    C117   C116      1.37459      .   S
    H29    C119      1.09011      .   S
    C153   N209      1.50472      .   S
    C153   H55       1.09900      .   S
    C153   H54       1.09579      .   S
    C119   C113      1.41670      .   S
    H80    C177      1.08949      .   S
    C177   C176      1.41323      .   S
    C174   H79       1.09142      .   S
    C174   C175      1.42083      .   S
    C116   H27       1.09079      .   S
    C116   C112      1.42076      .   S
    C113   C112      1.43701      .   S
    C113   C114      1.42166      .   S
    C112   C111      1.41542      .   S
    H87    C186      1.09203      .   S
    H88    C187      1.08690      .   S
    C176   C175      1.43711      .   S
    C176   C181      1.42358      .   S
    C175   C178      1.41590      .   S
    H25    C114      1.09185      .   S
    C114   C115      1.37603      .   S
    H33    C126      1.09116      .   S
    C186   C187      1.37404      .   S
    C186   C182      1.42064      .   S
    C187   C188      1.42044      .   S
    H84    C93       1.08979      .   S
    C111   H24       1.08957      .   S
    C111   C110      1.38414      .   S
    H31    C122      1.09072      .   S
    C126   C127      1.38552      .   S
    C126   C123      1.41495      .   S
    H83    C181      1.09116      .   S
    C178   H81       1.09019      .   S
    C178   C179      1.38527      .   S
    C127   C128      1.42248      .   S
    C181   C180      1.37674      .   S
    C115   C110      1.42053      .   S
    C115   H26       1.08816      .   S
    C122   C123      1.42232      .   S
    C122   C121      1.36850      .   S
    C93    C182      1.41297      .   S
    C93    C92       1.38515      .   S
    H18    C107      1.09855  1_655   S
    C182   C183      1.43836      .   S
    C188   C189      1.38548      .   S
    C123   C124      1.43710      .   S
    H15    C105      1.09785      .   S
    C128   H34       1.08898      .   S
    C128   C129      1.37546      .   S
    H19    C107      1.09598      .   S
    H30    C121      1.08976      .   S
    C121   C120      1.42936      .   S
    C107   N206      1.45727      .   S
    C107   N205      1.50623      .   S
    N206   C105      1.46055  1_455   S
    N206   C108      1.47334      .   S
    C124   C129      1.42191      .   S
    C124   C125      1.41450      .   S
    C179   C180      1.42253      .   S
    C180   H82       1.08915      .   S
    C92    C185      1.42047      .   S
    C129   H35       1.09219      .   S
    C189   C183      1.41318      .   S
    C189   H89       1.08967      .   S
    C183   C184      1.42109      .   S
    C105   H14       1.09595  1_565   S
    C105   N204      1.50493      .   S
    C120   C125      1.38623      .   S
    C125   H32       1.08944      .   S
    H21    C108      1.09821      .   S
    C108   H20       1.09721  1_565   S
    C108   N207      1.47914      .   S
    H12    C104      1.09608      .   S
    C185   C184      1.37426      .   S
    C185   H86       1.08630      .   S
    C184   H85       1.09116      .   S
    N205   C104      1.48994  1_455   S
    N205   C109      1.50620      .   S
    H5     C100      1.09800      .   S
    C104   N204      1.48927      .   S
    C104   H13       1.09553      .   S
    N204   C106      1.50233  1_655   S
    H10    C103      1.09828      .   S
    H22    C109      1.09835      .   S
    C109   N207      1.46012      .   S
    C109   H23       1.05874      .   S
    N207   C106      1.46393      .   S
    H0     C98       1.09572      .   S
    C100   H4        1.09704      .   S
    C100   N203      1.46557      .   S
    C100   N200      1.49865      .   S
    H17    C106      1.09660  1_545   S
    C106   H16       1.09785      .   S
    C103   N203      1.46053      .   S
    C103   H11       1.09855      .   S
    C103   N201      1.50511      .   S
    N203   C102      1.47953      .   S
    H39    C136      1.09120      .   S
    H40    C137      1.08712      .   S
    C98    N200      1.48818      .   S
    C98    N201      1.49038      .   S
    C98    H1        1.09594      .   S
    N200   C99       1.50675      .   S
    N201   C101      1.50471      .   S
    C136   C137      1.37400      .   S
    C136   C132      1.42054      .   S
    C137   C138      1.42032      .   S
    H42    C141      1.08959      .   S
    H36    C131      1.08991      .   S
    H96    C197      1.09599      .   S
    H45    C146      1.09099      .   S
    C102   H9        1.09800      .   S
    C102   H8        1.09766      .   S
    C102   N202      1.47333      .   S
    C141   C140      1.38627      .   S
    C141   C142      1.41566      .   S
    C140   C145      1.42267      .   S
    H76    C169      1.08852      .   S
    C99    H3        1.09620      .   S
    C99    N202      1.45882      .   S
    C99    H2        1.09690      .   S
    C131   C132      1.41323  1_455   S
    C131   C130      1.38503      .   S
    C132   C133      1.43837      .   S
    C146   C142      1.42196      .   S
    C146   C147      1.37723      .   S
    C138   C139      1.38554      .   S
    C142   C143      1.43691      .   S
    C198   C197      1.42238      .   S
    C198   C199      1.38536      .   S
    C197   C196      1.37707      .   S
    C145   H44       1.08856      .   S
    C145   C144      1.37544      .   S
    H46    C147      1.08914      .   S
    C101   N202      1.45743      .   S
    C101   H6        1.09583      .   S
    C101   H7        1.09894      .   S
    C147   C148      1.42257      .   S
    C169   C170      1.41939  1_455   S
    C169   C168      1.37517      .   S
    C170   C171      1.38425      .   S
    C143   C144      1.42198      .   S
    C143   C149      1.40512      .   S
    C144   H43       1.09146      .   S
    C130   C135      1.42053      .   S
    C133   C139      1.41327      .   S
    C133   C134      1.42133  1_655   S
    C139   H41       1.08977      .   S
    C148   C149      1.38573      .   S
    H97    C199      1.09043  1_655   S
    C199   C193      1.41406      .   S
    C196   H95       1.09101      .   S
    C196   C192      1.42200      .   S
    C149   H47       1.09914      .   S
    H75    C168      1.09082      .   S
    C168   C164      1.42076      .   S
    C171   H77       1.09016      .   S
    C171   C165      1.41695      .   S
    C135   C134      1.37434      .   S
    C135   H38       1.08703      .   S
    C134   H37       1.09140  1_455   S
    C193   C192      1.43687      .   S
    C193   C194      1.42198      .   S
    C192   C191      1.41550      .   S
    C164   C165      1.43735  1_455   S
    C164   C163      1.41542      .   S
    C165   C166      1.42178      .   S
    H91    C194      1.09179  1_655   S
    C194   C195      1.35994      .   S
    C191   H90       1.08947      .   S
    C191   C190      1.38606      .   S
    H67    C159      1.09626      .   S
    H66    C159      1.09896      .   S
    H72    C163      1.08956      .   S
    C163   C162      1.38381      .   S
    N213   C159      1.50492      .   S
    N213   C161      1.50623      .   S
    N213   C156      1.48976      .   S
    C166   H73       1.09183      .   S
    C166   C167      1.37620      .   S
    H70    C161      1.09835      .   S
    C159   N214      1.45749      .   S
    H60    C156      1.09613      .   S
    H71    C161      1.09795      .   S
    H61    C156      1.09544      .   S
    C195   C190      1.42364      .   S
    C195   H94       1.10374  1_455   S
    C161   N215      1.46013      .   S
    C156   N212      1.48927      .   S
    C162   C167      1.42090  1_455   S
    C167   H74       1.08808      .   S
    N214   C160      1.47372      .   S
    N214   C157      1.46022      .   S
    H69    C160      1.09824      .   S
    H63    C157      1.09792      .   S
    N215   C160      1.47840      .   S
    N215   C158      1.46430      .   S
    N212   C157      1.50501      .   S
    N212   C158      1.50215      .   S
    H64    C158      1.09775      .   S
