# CIF file generated by openbabel 2.4.90, see http://openbabel.sf.net
data_I
_chemical_name_common ''
_cell_length_a 12.365
_cell_length_b 20.163
_cell_length_c 20.18
_cell_angle_alpha 102.302
_cell_angle_beta 94.912
_cell_angle_gamma 94.696
_space_group_name_H-M_alt 'P 1'
_space_group_name_Hall 'P 1'
loop_
    _symmetry_equiv_pos_as_xyz
    x,y,z
loop_
    _atom_site_label
    _atom_site_type_symbol
    _atom_site_fract_x
    _atom_site_fract_y
    _atom_site_fract_z
    _atom_site_occupancy
    Lv0     Lv   0.37966   0.15538   0.61426   1.000
    Lv1     Lv   0.80193   0.30471   0.39834   1.000
    Lv2     Lv   0.46000   0.80419   0.28419   1.000
    Lv3     Lv   0.87966   0.61448   0.15534   1.000
    Lv4     Lv   0.95982   0.28429   0.80419   1.000
    Lv5     Lv   0.61557   0.78331   0.68565   1.000
    Lv6     Lv   0.54686   0.48173   0.93462   1.000
    Lv7     Lv   0.11574   0.68615   0.78335   1.000
    Lv8     Lv   0.30184   0.39825   0.30453   1.000
    Lv9     Lv   0.45835   0.68888   0.40050   1.000
    Lv10    Lv   0.95818   0.40068   0.68900   1.000
    Lv11    Lv   0.04680   0.93463   0.48173   1.000
