# CIF file generated by openbabel 2.4.90, see http://openbabel.sf.net
data_I
_chemical_name_common ''
_cell_length_a 12.365
_cell_length_b 20.163
_cell_length_c 20.18
_cell_angle_alpha 102.302
_cell_angle_beta 94.912
_cell_angle_gamma 94.696
_space_group_name_H-M_alt 'P 1'
_space_group_name_Hall 'P 1'
loop_
    _symmetry_equiv_pos_as_xyz
    x,y,z
loop_
    _atom_site_label
    _atom_site_type_symbol
    _atom_site_fract_x
    _atom_site_fract_y
    _atom_site_fract_z
    _atom_site_occupancy
    Zr0     Zr   0.61578   0.07295   0.55951   1.000
    Zr1     Zr   0.80517   0.01648   0.52665   1.000
    Zr2     Zr   0.41201   0.33328   0.60583   1.000
    Zr3     Zr   0.50489   0.48363   0.75530   1.000
    Zr4     Zr   0.11599   0.56046   0.07286   1.000
    Zr5     Zr   0.30521   0.52594   0.01643   1.000
    Zr6     Zr   0.91217   0.60581   0.33317   1.000
    Zr7     Zr   0.00503   0.75533   0.48350   1.000
    Zr8     Zr   0.60090   0.95697   0.43692   1.000
    Zr9     Zr   0.31870   0.64804   0.13494   1.000
    Zr10    Zr   0.75490   0.13607   0.47162   1.000
    Zr11    Zr   0.86048   0.47838   0.33583   1.000
    Zr12    Zr   0.28397   0.41736   0.70947   1.000
    Zr13    Zr   0.63231   0.38001   0.67179   1.000
    Zr14    Zr   0.66639   0.95282   0.61416   1.000
    Zr15    Zr   0.55438   0.61007   0.74861   1.000
    Zr16    Zr   0.10089   0.43735   0.95661   1.000
    Zr17    Zr   0.81850   0.13481   0.64819   1.000
    Zr18    Zr   0.25579   0.47115   0.13557   1.000
    Zr19    Zr   0.36017   0.33590   0.47837   1.000
    Zr20    Zr   0.78408   0.70951   0.41712   1.000
    Zr21    Zr   0.13247   0.67162   0.37999   1.000
    Zr22    Zr   0.16646   0.61475   0.95304   1.000
    Zr23    Zr   0.05445   0.74876   0.61002   1.000
    Zr24    Zr   0.55064   0.00379   0.47020   1.000
    Zr25    Zr   0.70197   0.94992   0.44822   1.000
    Zr26    Zr   0.37103   0.60811   0.09450   1.000
    Zr27    Zr   0.21522   0.64494   0.13393   1.000
    Zr28    Zr   0.67158   0.14079   0.50496   1.000
    Zr29    Zr   0.81583   0.08747   0.46648   1.000
    Zr30    Zr   0.92643   0.47496   0.29157   1.000
    Zr31    Zr   0.82389   0.53565   0.36390   1.000
    Zr32    Zr   0.59599   0.99512   0.60972   1.000
    Zr33    Zr   0.34518   0.47203   0.73776   1.000
    Zr34    Zr   0.31835   0.36083   0.68254   1.000
    Zr35    Zr   0.57142   0.35287   0.61657   1.000
    Zr36    Zr   0.59723   0.40602   0.72826   1.000
    Zr37    Zr   0.75940   0.95531   0.59141   1.000
    Zr38    Zr   0.59257   0.55280   0.72240   1.000
    Zr39    Zr   0.48627   0.61385   0.79166   1.000
    Zr40    Zr   0.05052   0.47177   0.00266   1.000
    Zr41    Zr   0.20232   0.44762   0.95018   1.000
    Zr42    Zr   0.87115   0.09465   0.60813   1.000
    Zr43    Zr   0.71502   0.13341   0.64512   1.000
    Zr44    Zr   0.17136   0.50368   0.13907   1.000
    Zr45    Zr   0.31837   0.46668   0.08798   1.000
    Zr46    Zr   0.42625   0.29156   0.47505   1.000
    Zr47    Zr   0.32359   0.36405   0.53552   1.000
    Zr48    Zr   0.09651   0.61131   0.99561   1.000
    Zr49    Zr   0.84539   0.73781   0.47100   1.000
    Zr50    Zr   0.81837   0.68263   0.36063   1.000
    Zr51    Zr   0.07172   0.61639   0.35284   1.000
    Zr52    Zr   0.09726   0.72813   0.40602   1.000
    Zr53    Zr   0.25891   0.59105   0.95531   1.000
    Zr54    Zr   0.09268   0.72241   0.55291   1.000
    Zr55    Zr   0.98624   0.79191   0.61366   1.000
    O56     O    0.08325   0.51611   0.03776   1.000
    O57     O    0.07570   0.45456   0.97964   1.000
    O58     O    0.31179   0.49631   0.05221   1.000
    O59     O    0.33812   0.56703   0.05547   1.000
    O60     O    0.25377   0.48678   0.98331   1.000
    O61     O    0.28206   0.55850   0.98587   1.000
    O62     O    0.16560   0.60270   0.10339   1.000
    O63     O    0.14367   0.53207   0.10596   1.000
    O64     O    0.10625   0.58588   0.03423   1.000
    O65     O    0.28708   0.46892   0.11177   1.000
    O66     O    0.34487   0.62807   0.11472   1.000
    O67     O    0.26696   0.64649   0.13443   1.000
    O68     O    0.21357   0.48742   0.13732   1.000
    O69     O    0.89345   0.47667   0.31370   1.000
    O70     O    0.99195   0.61110   0.34301   1.000
    O71     O    0.86527   0.64422   0.34690   1.000
    O72     O    0.86803   0.57073   0.34853   1.000
    O73     O    0.84218   0.50702   0.34987   1.000
    O74     O    0.10209   0.64401   0.36641   1.000
    O75     O    0.80122   0.69607   0.38888   1.000
    O76     O    0.11486   0.69988   0.39300   1.000
    O77     O    0.05115   0.74173   0.44476   1.000
    O78     O    0.81473   0.72366   0.44406   1.000
    O79     O    0.65144   0.95344   0.44257   1.000
    O80     O    0.57577   0.98038   0.45356   1.000
    O81     O    0.75357   0.98320   0.48744   1.000
    O82     O    0.78537   0.11177   0.46905   1.000
    O83     O    0.81051   0.05197   0.49657   1.000
    O84     O    0.58321   0.03837   0.51486   1.000
    O85     O    0.92521   0.74657   0.47725   1.000
    O86     O    0.71324   0.13843   0.48829   1.000
    O87     O    0.39321   0.31373   0.47671   1.000
    O88     O    0.34188   0.34998   0.50695   1.000
    O89     O    0.04886   0.73887   0.51821   1.000
    O90     O    0.64368   0.10687   0.53223   1.000
    O91     O    0.78229   0.98589   0.55903   1.000
    O92     O    0.83816   0.05556   0.56739   1.000
    O93     O    0.36780   0.34867   0.57068   1.000
    O94     O    0.07356   0.73559   0.58147   1.000
    O95     O    0.60589   0.03403   0.58461   1.000
    O96     O    0.66540   0.10318   0.60232   1.000
    O97     O    0.71290   0.95406   0.60279   1.000
    O98     O    0.49172   0.34308   0.61120   1.000
    O99     O    0.36518   0.34706   0.64419   1.000
    O100    O    0.84483   0.11473   0.62816   1.000
    O101    O    0.63119   0.97397   0.61194   1.000
    O102    O    0.02034   0.77034   0.61184   1.000
    O103    O    0.60187   0.36644   0.64418   1.000
    O104    O    0.76676   0.13411   0.64665   1.000
    O105    O    0.61477   0.39301   0.70003   1.000
    O106    O    0.30116   0.38909   0.69601   1.000
    O107    O    0.31458   0.44470   0.72362   1.000
    O108    O    0.57347   0.58144   0.73551   1.000
    O109    O    0.54873   0.51822   0.73885   1.000
    O110    O    0.55106   0.44482   0.74178   1.000
    O111    O    0.42504   0.47783   0.74653   1.000
    O112    O    0.52032   0.61196   0.77014   1.000
    O113    O    0.15160   0.44249   0.95339   1.000
    O114    O    0.21269   0.60290   0.95417   1.000
    O115    O    0.13149   0.61303   0.97433   1.000
    O116    O    0.71048   0.04472   0.54308   1.000
    O117    O    0.21060   0.54320   0.04464   1.000
    N118    N    0.37966   0.15538   0.61426   1.000
    O119    O    0.39169   0.21843   0.61157   1.000
    O120    O    0.46286   0.12618   0.59435   1.000
    N121    N    0.80193   0.30471   0.39834   1.000
    O122    O    0.82129   0.37623   0.37340   1.000
    O123    O    0.78584   0.23463   0.42645   1.000
    N124    N    0.46000   0.80419   0.28419   1.000
    O125    O    0.51373   0.86767   0.34645   1.000
    O126    O    0.40618   0.73972   0.22296   1.000
    N127    N    0.87966   0.61448   0.15534   1.000
    O128    O    0.96294   0.59481   0.12615   1.000
    O129    O    0.89180   0.61168   0.21836   1.000
    N130    N    0.95982   0.28429   0.80419   1.000
    O131    O    0.90598   0.22296   0.73980   1.000
    O132    O    0.01361   0.34669   0.86752   1.000
    N133    N    0.61557   0.78331   0.68565   1.000
    O134    O    0.63319   0.85367   0.65814   1.000
    O135    O    0.59513   0.71193   0.71077   1.000
    N136    N    0.54686   0.48173   0.93462   1.000
    O137    O    0.53150   0.48212   0.87110   1.000
    O138    O    0.46158   0.49774   0.96362   1.000
    N139    N    0.11574   0.68615   0.78335   1.000
    O140    O    0.09528   0.71112   0.71195   1.000
    O141    O    0.13333   0.65869   0.85378   1.000
    N142    N    0.30184   0.39825   0.30453   1.000
    O143    O    0.28612   0.42621   0.23436   1.000
    O144    O    0.32105   0.37337   0.37611   1.000
    N145    N    0.45835   0.68888   0.40050   1.000
    O146    O    0.32535   0.67959   0.38996   1.000
    O147    O    0.59128   0.69946   0.40957   1.000
    N148    N    0.95818   0.40068   0.68900   1.000
    O149    O    0.09114   0.40978   0.69952   1.000
    O150    O    0.82519   0.39007   0.67974   1.000
    N151    N    0.04680   0.93463   0.48173   1.000
    O152    O    0.03155   0.87110   0.48208   1.000
    O153    O    0.96155   0.96367   0.49799   1.000
loop_
    _geom_bond_atom_site_label_1
    _geom_bond_atom_site_label_2
    _geom_bond_distance
    _geom_bond_site_symmetry_2
    _ccdc_geom_bond_type
    Zr40   O56       1.04249      .   S
    Zr4    O56       1.04249      .   S
    Zr40   O57       0.63798  1_554   S
    Zr16   O57       0.63798      .   S
    Zr5    O58       1.03273      .   S
    Zr45   O58       1.03273      .   S
    Zr5    O59       1.04122      .   S
    Zr26   O59       1.04122      .   S
    Zr5    O60       1.04641  1_554   S
    Zr41   O60       1.04641      .   S
    Zr5    O61       1.03253  1_554   S
    Zr53   O61       1.03253      .   S
    Zr4    O62       1.05242      .   S
    Zr27   O62       1.05242      .   S
    Zr4    O63       1.02325      .   S
    Zr44   O63       1.02325      .   S
    Zr4    O64       1.02428      .   S
    Zr48   O64       1.02428  1_556   S
    Zr45   O65       0.63854      .   S
    Zr18   O65       0.63854      .   S
    Zr26   O66       0.63810      .   S
    Zr9    O66       0.63810      .   S
    Zr27   O67       0.63705      .   S
    Zr9    O67       0.63705      .   S
    Zr18   O68       0.63832      .   S
    Zr44   O68       0.63832      .   S
    Zr30   O69       0.62753      .   S
    Zr11   O69       0.62753      .   S
    Zr6    O70       0.98181      .   S
    Zr51   O70       0.98181  1_455   S
    Zr6    O71       1.01120      .   S
    Zr50   O71       1.01120      .   S
    Zr6    O72       0.97649      .   S
    Zr31   O72       0.97649      .   S
    Zr11   O73       0.65375      .   S
    Zr31   O73       0.65375      .   S
    Zr51   O74       0.63971      .   S
    Zr21   O74       0.63971      .   S
    Zr50   O75       0.63841      .   S
    Zr20   O75       0.63841      .   S
    Zr21   O76       0.63821      .   S
    Zr52   O76       0.63821      .   S
    Zr52   O77       1.01096      .   S
    Zr7    O77       1.01096      .   S
    Zr20   O78       0.63366      .   S
    Zr49   O78       0.63366      .   S
    Zr8    O79       0.63800      .   S
    Zr25   O79       0.63800      .   S
    Zr8    O80       0.63758      .   S
    Zr24   O80       0.63758  1_545   S
    Zr25   O81       1.04917      .   S
    Zr1    O81       1.04917  1_545   S
    Zr29   O82       0.63830      .   S
    Zr10   O82       0.63830      .   S
    Zr29   O83       1.03409      .   S
    Zr1    O83       1.03409      .   S
    Zr24   O84       1.04142      .   S
    Zr0    O84       1.04142      .   S
    Zr49   O85       0.98080      .   S
    Zr7    O85       0.98080  1_455   S
    Zr10   O86       0.63847      .   S
    Zr28   O86       0.63847      .   S
    Zr46   O87       0.62751      .   S
    Zr19   O87       0.62751      .   S
    Zr19   O88       0.65368      .   S
    Zr47   O88       0.65368      .   S
    Zr7    O89       0.97865      .   S
    Zr54   O89       0.97865      .   S
    Zr28   O90       1.02176      .   S
    Zr0    O90       1.02176      .   S
    Zr1    O91       1.03064  1_545   S
    Zr37   O91       1.03064      .   S
    Zr1    O92       1.03785      .   S
    Zr42   O92       1.03785      .   S
    Zr47   O93       0.97645      .   S
    Zr2    O93       0.97645      .   S
    Zr54   O94       0.65334      .   S
    Zr23   O94       0.65334      .   S
    Zr0    O95       1.02551      .   S
    Zr32   O95       1.02551  1_565   S
    Zr0    O96       1.05723      .   S
    Zr43   O96       1.05723      .   S
    Zr37   O97       0.63774      .   S
    Zr14   O97       0.63774      .   S
    Zr2    O98       0.98125      .   S
    Zr35   O98       0.98125      .   S
    Zr2    O99       1.01140      .   S
    Zr34   O99       1.01140      .   S
    Zr42   O100      0.63850      .   S
    Zr17   O100      0.63850      .   S
    Zr32   O101      0.63909      .   S
    Zr14   O101      0.63909      .   S
    Zr23   O102      0.62798      .   S
    Zr55   O102      0.62798  1_655   S
    Zr35   O103      0.63972      .   S
    Zr13   O103      0.63972      .   S
    Zr43   O104      0.63671      .   S
    Zr17   O104      0.63671      .   S
    Zr13   O105      0.63816      .   S
    Zr36   O105      0.63816      .   S
    Zr34   O106      0.63842      .   S
    Zr12   O106      0.63842      .   S
    Zr12   O107      0.63937      .   S
    Zr33   O107      0.63937      .   S
    Zr38   O108      0.65337      .   S
    Zr15   O108      0.65337      .   S
    Zr38   O109      0.97875      .   S
    Zr3    O109      0.97875      .   S
    Zr36   O110      1.01065      .   S
    Zr3    O110      1.01065      .   S
    Zr33   O111      0.98097      .   S
    Zr3    O111      0.98097      .   S
    Zr15   O112      0.62795      .   S
    Zr39   O112      0.62795      .   S
    Zr41   O113      0.63826      .   S
    Zr16   O113      0.63826      .   S
    Zr22   O114      0.63778      .   S
    Zr53   O114      0.63778      .   S
    Zr22   O115      0.63912      .   S
    Zr48   O115      0.63912      .   S
    Zr0    O116      1.37852      .   S
    Zr1    O116      1.37852      .   S
    Zr4    O117      1.38211      .   S
    Zr5    O117      1.38211      .   S
    N118   O119      1.28110      .   S
    Zr2    O119      2.33729      .   S
    N118   O120      1.27884      .   S
    Zr0    O120      2.33670      .   S
    N121   O122      1.63218      .   S
    Zr11   O122      2.36999      .   S
    N121   O123      1.63472      .   S
    Zr10   O123      2.37365      .   S
    N124   O125      1.64034      .   S
    Zr8    O125      2.38361      .   S
    N124   O126      1.64081      .   S
    Zr9    O126      2.38464      .   S
    N127   O128      1.27905      .   S
    Zr4    O128      2.33732  1_455   S
    N127   O129      1.28147      .   S
    Zr6    O129      2.33828      .   S
    N130   O131      1.64117      .   S
    Zr17   O131      2.38515      .   S
    N130   O132      1.64038  1_655   S
    Zr16   O132      2.38382      .   S
    N133   O134      1.63515      .   S
    Zr14   O134      2.37427      .   S
    N133   O135      1.63282      .   S
    Zr15   O135      2.37062      .   S
    N136   O137      1.28147      .   S
    Zr3    O137      2.33895      .   S
    N136   O138      1.28037      .   S
    Zr5    O138      2.33932  1_554   S
    N139   O140      1.63136      .   S
    Zr23   O140      2.36893      .   S
    N139   O141      1.63584      .   S
    Zr22   O141      2.37485      .   S
    N142   O143      1.63463      .   S
    Zr18   O143      2.37348      .   S
    N142   O144      1.63226      .   S
    Zr19   O144      2.36986      .   S
    N145   O146      1.63010      .   S
    Zr21   O146      2.36556      .   S
    N145   O147      1.62954      .   S
    Zr20   O147      2.36491      .   S
    N148   O149      1.62971  1_655   S
    Zr12   O149      2.36511      .   S
    N148   O150      1.63020      .   S
    Zr13   O150      2.36568      .   S
    N151   O152      1.28092      .   S
    Zr7    O152      2.33711      .   S
    N151   O153      1.28078  1_455   S
    Zr1    O153      2.33946  1_545   S
