# CIF file generated by openbabel 2.4.90, see http://openbabel.sf.net
data_I
_chemical_name_common ''
_cell_length_a 13.569
_cell_length_b 13.571
_cell_length_c 23.187
_cell_angle_alpha 90.029
_cell_angle_beta 89.966
_cell_angle_gamma 90.014
_space_group_name_H-M_alt 'P 1'
_space_group_name_Hall 'P 1'
loop_
    _symmetry_equiv_pos_as_xyz
    x,y,z
loop_
    _atom_site_label
    _atom_site_type_symbol
    _atom_site_fract_x
    _atom_site_fract_y
    _atom_site_fract_z
    _atom_site_occupancy
    H0      H    0.32729   0.32211   0.78263   1.000
    H1      H    0.41743   0.32358   0.60608   1.000
    H2      H    0.24180   0.30067   0.57508   1.000
    H3      H    0.11032   0.28373   0.64794   1.000
    H4      H    0.67275   0.67789   0.28257   1.000
    H5      H    0.58294   0.67646   0.10602   1.000
    H6      H    0.75863   0.69938   0.07503   1.000
    H7      H    0.88996   0.71630   0.14790   1.000
    H8      H    0.17762   0.82723   0.03266   1.000
    H9      H    0.17634   0.91701   0.85612   1.000
    H10     H    0.19914   0.74134   0.82513   1.000
    H11     H    0.21595   0.61003   0.89000   1.000
    H12     H    0.82243   0.17274   0.53264   1.000
    H13     H    0.82365   0.08260   0.35609   1.000
    H14     H    0.80089   0.25822   0.32510   1.000
    H15     H    0.78411   0.38968   0.39797   1.000
    H16     H    0.17269   0.82223   0.46742   1.000
    H17     H    0.08252   0.82359   0.64397   1.000
    H18     H    0.25813   0.80069   0.67496   1.000
    H19     H    0.38961   0.78380   0.60200   1.000
    H20     H    0.82723   0.17785   0.96740   1.000
    H21     H    0.91700   0.17645   0.14395   1.000
    H22     H    0.74132   0.19939   0.17494   1.000
    H23     H    0.61001   0.21632   0.10207   1.000
    H24     H    0.32232   0.32729   0.21734   1.000
    H25     H    0.32364   0.41739   0.39390   1.000
    H26     H    0.30089   0.24175   0.42489   1.000
    H27     H    0.28407   0.11030   0.35203   1.000
    H28     H    0.67763   0.67278   0.71741   1.000
    H29     H    0.67635   0.58296   0.89396   1.000
    H30     H    0.69910   0.75864   0.92494   1.000
    H31     H    0.71590   0.88998   0.85208   1.000
    C32     C    0.20802   0.30204   0.72114   1.000
    C33     C    0.30659   0.31570   0.73740   1.000
    C34     C    0.38166   0.32235   0.69642   1.000
    C35     C    0.35823   0.31788   0.63764   1.000
    C36     C    0.26038   0.30522   0.62075   1.000
    C37     C    0.18591   0.29661   0.66195   1.000
    C38     C    0.79213   0.69795   0.22109   1.000
    C39     C    0.69352   0.68432   0.23740   1.000
    C40     C    0.61853   0.67770   0.19637   1.000
    C41     C    0.64207   0.68216   0.13758   1.000
    C42     C    0.73995   0.69481   0.12070   1.000
    C43     C    0.81435   0.70342   0.16190   1.000
    C44     C    0.19766   0.70786   0.97119   1.000
    C45     C    0.18404   0.80645   0.98750   1.000
    C46     C    0.17747   0.88142   0.94646   1.000
    C47     C    0.18196   0.85788   0.88760   1.000
    C48     C    0.19457   0.76001   0.87080   1.000
    C49     C    0.20309   0.68563   0.91200   1.000
    C50     C    0.80240   0.29200   0.47115   1.000
    C51     C    0.81600   0.19344   0.48747   1.000
    C52     C    0.82253   0.11838   0.44643   1.000
    C53     C    0.81805   0.14180   0.38765   1.000
    C54     C    0.80546   0.23963   0.37077   1.000
    C55     C    0.79696   0.31410   0.41197   1.000
    C56     C    0.29193   0.80212   0.52891   1.000
    C57     C    0.19337   0.81581   0.51259   1.000
    C58     C    0.11830   0.82241   0.55362   1.000
    C59     C    0.14172   0.81793   0.61241   1.000
    C60     C    0.23955   0.80525   0.62929   1.000
    C61     C    0.31403   0.79670   0.58800   1.000
    C62     C    0.70785   0.19798   0.02888   1.000
    C63     C    0.80645   0.18427   0.01257   1.000
    C64     C    0.88143   0.17763   0.05360   1.000
    C65     C    0.85788   0.18212   0.11239   1.000
    C66     C    0.76001   0.19484   0.12927   1.000
    C67     C    0.68562   0.20340   0.08807   1.000
    C68     C    0.30232   0.20802   0.27880   1.000
    C69     C    0.31592   0.30659   0.26252   1.000
    C70     C    0.32246   0.38164   0.30355   1.000
    C71     C    0.31802   0.35820   0.36234   1.000
    C72     C    0.30544   0.26035   0.37920   1.000
    C73     C    0.29690   0.18589   0.33800   1.000
    C74     C    0.69764   0.79215   0.77889   1.000
    C75     C    0.68404   0.69356   0.76258   1.000
    C76     C    0.67751   0.61856   0.80361   1.000
    C77     C    0.68196   0.64209   0.86240   1.000
    C78     C    0.69455   0.73997   0.87928   1.000
    C79     C    0.70306   0.81437   0.83808   1.000
loop_
    _geom_bond_atom_site_label_1
    _geom_bond_atom_site_label_2
    _geom_bond_distance
    _geom_bond_site_symmetry_2
    _ccdc_geom_bond_type
    C63    C62       1.40244      .   S
    C63    C64       1.39631      .   S
    C63    H20       1.08795  1_554   S
    C62    C67       1.40692      .   S
    H8     C45       1.08776  1_554   S
    C64    C65       1.40124      .   S
    H6     C42       1.09049      .   S
    C67    H23       1.09008      .   S
    C67    C66       1.39506      .   S
    H5     C41       1.08899      .   S
    C65    C66       1.39503      .   S
    C65    H21       1.08897      .   S
    C42    C41       1.39501      .   S
    C42    C43       1.39506      .   S
    C66    H22       1.09045      .   S
    C41    C40       1.40124      .   S
    H7     C43       1.09009      .   S
    C43    C38       1.40696      .   S
    C40    C39       1.39631      .   S
    H24    C69       1.08818      .   S
    C38    C39       1.40248      .   S
    C39    H4        1.08802      .   S
    C69    C68       1.40226      .   S
    C69    C70       1.39625      .   S
    C68    C73       1.40714      .   S
    C70    C71       1.40121      .   S
    H14    C54       1.09050      .   S
    C73    H27       1.09028      .   S
    C73    C72       1.39506      .   S
    H13    C53       1.08903      .   S
    C71    C72       1.39483      .   S
    C71    H25       1.08901      .   S
    C54    C53       1.39499      .   S
    C54    C55       1.39506      .   S
    C72    H26       1.09090      .   S
    C53    C52       1.40102      .   S
    H15    C55       1.09009      .   S
    C55    C50       1.40675      .   S
    C52    C51       1.39640      .   S
    H16    C57       1.08802      .   S
    C50    C51       1.40252      .   S
    C51    H12       1.08805      .   S
    C57    C56       1.40251      .   S
    C57    C58       1.39630      .   S
    C56    C61       1.40469      .   S
    C58    C59       1.40124      .   S
    H2     C36       1.09044      .   S
    C61    H19       1.09010      .   S
    C61    C60       1.39651      .   S
    H1     C35       1.08900      .   S
    C59    C60       1.39498      .   S
    C59    H17       1.08899      .   S
    C36    C35       1.39502      .   S
    C36    C37       1.39508      .   S
    C60    H18       1.09048      .   S
    C35    C34       1.40098      .   S
    H3     C37       1.09013      .   S
    C37    C32       1.40689      .   S
    C34    C33       1.39551      .   S
    H28    C75       1.08802      .   S
    C32    C33       1.40212      .   S
    C33    H0        1.08929      .   S
    C75    C74       1.40248      .   S
    C75    C76       1.39628      .   S
    C74    C79       1.40698      .   S
    C76    C77       1.40125      .   S
    H10    C48       1.09046      .   S
    C79    H31       1.09009      .   S
    C79    C78       1.39506      .   S
    H9     C47       1.08776      .   S
    C77    C78       1.39502      .   S
    C77    H29       1.08900      .   S
    C48    C47       1.39449      .   S
    C48    C49       1.39503      .   S
    C78    H30       1.09027      .   S
    C47    C46       1.40281      .   S
    H11    C49       1.15884      .   S
    C49    C44       1.40693      .   S
    C46    C45       1.39639      .   S
    C44    C45       1.40247      .   S
