# CIF file generated by openbabel 2.4.90, see http://openbabel.sf.net
data_I
_chemical_name_common ''
_cell_length_a 13.569
_cell_length_b 13.571
_cell_length_c 23.187
_cell_angle_alpha 90.029
_cell_angle_beta 89.966
_cell_angle_gamma 90.014
_space_group_name_H-M_alt 'P 1'
_space_group_name_Hall 'P 1'
loop_
    _symmetry_equiv_pos_as_xyz
    x,y,z
loop_
    _atom_site_label
    _atom_site_type_symbol
    _atom_site_fract_x
    _atom_site_fract_y
    _atom_site_fract_z
    _atom_site_occupancy
    H0      H    0.00561   0.33882   0.71341   1.000
    H1      H    0.22980   0.23844   0.83250   1.000
    H2      H    0.94025   0.25198   0.88744   1.000
    H3      H    0.99456   0.66115   0.21332   1.000
    H4      H    0.77015   0.76150   0.33259   1.000
    H5      H    0.05961   0.74791   0.38741   1.000
    H6      H    0.16085   0.50545   0.96344   1.000
    H7      H    0.26124   0.72985   0.08263   1.000
    H8      H    0.24799   0.44034   0.13739   1.000
    H9      H    0.83906   0.49443   0.46330   1.000
    H10     H    0.73894   0.27014   0.58266   1.000
    H11     H    0.75215   0.55973   0.63745   1.000
    H12     H    0.49439   0.83885   0.53667   1.000
    H13     H    0.27011   0.73866   0.41740   1.000
    H14     H    0.55970   0.75215   0.36256   1.000
    H15     H    0.50543   0.16112   0.03662   1.000
    H16     H    0.72985   0.26156   0.91743   1.000
    H17     H    0.44034   0.24802   0.86263   1.000
    H18     H    0.33910   0.00563   0.28650   1.000
    H19     H    0.23871   0.22982   0.16740   1.000
    H20     H    0.25201   0.94025   0.11258   1.000
    H21     H    0.66085   0.99456   0.78660   1.000
    H22     H    0.76116   0.77018   0.66739   1.000
    H23     H    0.74783   0.05965   0.61260   1.000
    C24     C    0.96033   0.29620   0.79802   1.000
    C25     C    0.03074   0.31113   0.75496   1.000
    C26     C    0.13045   0.29098   0.76549   1.000
    C27     C    0.15453   0.25758   0.82091   1.000
    C28     C    0.99173   0.26403   0.85216   1.000
    C29     C    0.03967   0.70372   0.29797   1.000
    C30     C    0.96935   0.68882   0.25490   1.000
    C31     C    0.86963   0.70899   0.26544   1.000
    C32     C    0.84544   0.74235   0.32089   1.000
    C33     C    0.00819   0.73587   0.35213   1.000
    C34     C    0.20361   0.46029   0.04801   1.000
    C35     C    0.18858   0.53065   0.00498   1.000
    C36     C    0.20869   0.63038   0.01552   1.000
    C37     C    0.24215   0.65456   0.07093   1.000
    C38     C    0.23584   0.49176   0.10214   1.000
    C39     C    0.79641   0.53968   0.54802   1.000
    C40     C    0.81142   0.46927   0.50496   1.000
    C41     C    0.79137   0.36955   0.51551   1.000
    C42     C    0.75801   0.34543   0.57096   1.000
    C43     C    0.76428   0.50826   0.60218   1.000
    C44     C    0.53966   0.79627   0.45202   1.000
    C45     C    0.46923   0.81119   0.49509   1.000
    C46     C    0.36950   0.79114   0.48450   1.000
    C47     C    0.34540   0.75775   0.42910   1.000
    C48     C    0.50823   0.76418   0.39785   1.000
    C49     C    0.46028   0.20376   0.95203   1.000
    C50     C    0.53063   0.18883   0.99508   1.000
    C51     C    0.63037   0.20899   0.98455   1.000
    C52     C    0.65455   0.24241   0.92912   1.000
    C53     C    0.49177   0.23596   0.89789   1.000
    C54     C    0.29635   0.96033   0.20198   1.000
    C55     C    0.31136   0.03076   0.24502   1.000
    C56     C    0.29128   0.13046   0.23448   1.000
    C57     C    0.25781   0.15455   0.17907   1.000
    C58     C    0.26412   0.99172   0.14785   1.000
    C59     C    0.70354   0.03970   0.70202   1.000
    C60     C    0.68854   0.96936   0.74508   1.000
    C61     C    0.70864   0.86964   0.73450   1.000
    C62     C    0.74205   0.84546   0.67909   1.000
    C63     C    0.73571   0.00822   0.64786   1.000
    N64     N    0.08759   0.24602   0.86325   1.000
    N65     N    0.91231   0.75387   0.36323   1.000
    N66     N    0.25380   0.58768   0.11324   1.000
    N67     N    0.74638   0.41235   0.61329   1.000
    N68     N    0.41232   0.74625   0.38674   1.000
    N69     N    0.58768   0.25397   0.88600   1.000
    N70     N    0.24619   0.08761   0.13675   1.000
    N71     N    0.75365   0.91232   0.63676   1.000
loop_
    _geom_bond_atom_site_label_1
    _geom_bond_atom_site_label_2
    _geom_bond_distance
    _geom_bond_site_symmetry_2
    _ccdc_geom_bond_type
    C35    C36       1.40192      .   S
    C35    C34       1.39649      .   S
    C35    H6        1.08914  1_554   S
    C36    C37       1.40164      .   S
    H15    C50       1.08904  1_554   S
    C34    C38       1.39609      .   S
    C37    H7        1.08835      .   S
    C37    N66       1.34627      .   S
    C38    N66       1.34887      .   S
    C38    H8        1.08771      .   S
    H20    C58       1.08778      .   S
    N70    C58       1.34889  1_545   S
    N70    C57       1.34614      .   S
    C58    C54       1.39617      .   S
    H19    C57       1.08829      .   S
    C57    C56       1.40175      .   S
    C54    C55       1.39645  1_565   S
    H3     C30       1.08939      .   S
    C56    C55       1.40194      .   S
    C55    H18       1.08801      .   S
    C30    C31       1.40193      .   S
    C30    C29       1.39623  1_655   S
    C31    C32       1.40170      .   S
    C29    C33       1.39599      .   S
    C32    H4        1.08834      .   S
    C32    N65       1.34623      .   S
    C33    N65       1.34841  1_455   S
    C33    H5        1.08774      .   S
    H14    C48       1.08772      .   S
    N68    C48       1.34892      .   S
    N68    C47       1.34630      .   S
    C48    C44       1.39611      .   S
    H13    C47       1.08835      .   S
    C47    C46       1.40080      .   S
    C44    C45       1.39648      .   S
    H9     C40       1.09095      .   S
    C46    C45       1.40206      .   S
    C45    H12       1.08941      .   S
    C40    C41       1.40190      .   S
    C40    C39       1.39650      .   S
    C41    C42       1.40174      .   S
    C39    C43       1.39599      .   S
    C42    H10       1.08831      .   S
    C42    N67       1.34615      .   S
    C43    N67       1.34892      .   S
    C43    H11       1.08767      .   S
    H23    C63       1.08760      .   S
    N71    C63       1.34873  1_565   S
    N71    C62       1.34616      .   S
    C63    C59       1.39607      .   S
    H22    C62       1.08831      .   S
    C62    C61       1.40103      .   S
    C59    C60       1.39649  1_545   S
    H0     C25       1.08923      .   S
    C61    C60       1.40203      .   S
    C60    H21       1.08823      .   S
    C25    C26       1.40192      .   S
    C25    C24       1.39625  1_455   S
    C26    C27       1.40172      .   S
    C24    C28       1.39617      .   S
    C27    H1        1.08783      .   S
    C27    N64       1.34626      .   S
    C28    N64       1.34853  1_655   S
    C28    H2        1.08777      .   S
    H17    C53       1.08766      .   S
    N69    C53       1.35247      .   S
    N69    C52       1.35970      .   S
    C53    C49       1.39615      .   S
    H16    C52       1.08832      .   S
    C52    C51       1.40191      .   S
    C49    C50       1.39653      .   S
    C51    C50       1.40190      .   S
