# CIF file generated by openbabel 2.4.90, see http://openbabel.sf.net
data_I
_chemical_name_common ''
_cell_length_a 13.569
_cell_length_b 13.571
_cell_length_c 23.187
_cell_angle_alpha 90.029
_cell_angle_beta 89.966
_cell_angle_gamma 90.014
_space_group_name_H-M_alt 'P 1'
_space_group_name_Hall 'P 1'
loop_
    _symmetry_equiv_pos_as_xyz
    x,y,z
loop_
    _atom_site_label
    _atom_site_type_symbol
    _atom_site_fract_x
    _atom_site_fract_y
    _atom_site_fract_z
    _atom_site_occupancy
    Mc0     Mc   0.30920   0.27974   0.33126   1.000
    Mc1     Mc   0.69077   0.72051   0.83132   1.000
    Mc2     Mc   0.72048   0.69104   0.16866   1.000
    Mc3     Mc   0.80925   0.22026   0.41872   1.000
    Mc4     Mc   0.19078   0.77949   0.91795   1.000
    Mc5     Mc   0.27976   0.30899   0.66870   1.000
    Mc6     Mc   0.77948   0.19103   0.08131   1.000
    Mc7     Mc   0.22019   0.80905   0.58132   1.000
