# CIF file generated by openbabel 2.4.90, see http://openbabel.sf.net
data_I
_chemical_name_common ''
_cell_length_a 13.569
_cell_length_b 13.571
_cell_length_c 23.187
_cell_angle_alpha 90.029
_cell_angle_beta 89.966
_cell_angle_gamma 90.014
_space_group_name_H-M_alt 'P 1'
_space_group_name_Hall 'P 1'
loop_
    _symmetry_equiv_pos_as_xyz
    x,y,z
loop_
    _atom_site_label
    _atom_site_type_symbol
    _atom_site_fract_x
    _atom_site_fract_y
    _atom_site_fract_z
    _atom_site_occupancy
    Lv0     Lv   0.27744   0.05902   0.19018   1.000
    Lv1     Lv   0.72244   0.94101   0.69021   1.000
    Lv2     Lv   0.94099   0.72269   0.30976   1.000
    Lv3     Lv   0.77756   0.44098   0.55981   1.000
    Lv4     Lv   0.22253   0.55900   0.05981   1.000
    Lv5     Lv   0.05900   0.27724   0.80979   1.000
    Lv6     Lv   0.55899   0.22274   0.94015   1.000
    Lv7     Lv   0.44095   0.77738   0.44021   1.000
