# CIF file generated by openbabel 2.4.90, see http://openbabel.sf.net
data_I
_chemical_name_common ''
_cell_length_a 13.569
_cell_length_b 13.571
_cell_length_c 23.187
_cell_angle_alpha 90.029
_cell_angle_beta 89.966
_cell_angle_gamma 90.014
_space_group_name_H-M_alt 'P 1'
_space_group_name_Hall 'P 1'
loop_
    _symmetry_equiv_pos_as_xyz
    x,y,z
loop_
    _atom_site_label
    _atom_site_type_symbol
    _atom_site_fract_x
    _atom_site_fract_y
    _atom_site_fract_z
    _atom_site_occupancy
    Zn0     Zn   0.86234   0.80046   0.44274   1.000
    Zn1     Zn   0.30052   0.63767   0.19272   1.000
    Zn2     Zn   0.69961   0.36237   0.69276   1.000
    Zn3     Zn   0.36235   0.69958   0.30725   1.000
    Zn4     Zn   0.63768   0.30054   0.80729   1.000
    Zn5     Zn   0.19945   0.13763   0.05728   1.000
    Zn6     Zn   0.80043   0.86235   0.55727   1.000
    Zn7     Zn   0.13762   0.19945   0.94274   1.000
    C8      C    0.85247   0.31271   0.78518   1.000
    C9      C    0.48684   0.33112   0.71600   1.000
    C10     C    0.14756   0.68726   0.28514   1.000
    C11     C    0.51331   0.66892   0.21596   1.000
    C12     C    0.18717   0.35241   0.03516   1.000
    O13     O    0.05173   0.15808   0.07289   1.000
    O14     O    0.28278   0.79089   0.17740   1.000
    O15     O    0.35363   0.83323   0.26277   1.000
    O16     O    0.32533   0.50245   0.22980   1.000
    C17     C    0.16883   0.98664   0.96604   1.000
    C18     C    0.81276   0.64755   0.53516   1.000
    C19     C    0.83117   0.01320   0.46601   1.000
    C20     C    0.64754   0.81273   0.46485   1.000
    C21     C    0.01312   0.83113   0.53404   1.000
    C22     C    0.35240   0.18723   0.96486   1.000
    C23     C    0.98665   0.16890   0.03401   1.000
    C24     C    0.31279   0.85247   0.21482   1.000
    C25     C    0.33117   0.48682   0.28398   1.000
    C26     C    0.68718   0.14758   0.71486   1.000
    C27     C    0.66889   0.51335   0.78403   1.000
    O28     O    0.79087   0.28276   0.82258   1.000
    O29     O    0.83325   0.35359   0.73724   1.000
    O30     O    0.50245   0.32534   0.77010   1.000
    O31     O    0.55202   0.34191   0.67710   1.000
    O32     O    0.20909   0.71725   0.32254   1.000
    O33     O    0.16685   0.64634   0.23718   1.000
    O34     O    0.49763   0.67477   0.27008   1.000
    O35     O    0.44819   0.65813   0.17707   1.000
    O36     O    0.21717   0.29089   0.07254   1.000
    O37     O    0.14630   0.33313   0.98723   1.000
    O38     O    0.17465   0.00232   0.02015   1.000
    O39     O    0.15807   0.05174   0.92715   1.000
    O40     O    0.78274   0.70910   0.57250   1.000
    O41     O    0.85360   0.66681   0.48718   1.000
    O42     O    0.82529   0.99760   0.52013   1.000
    O43     O    0.84193   0.94805   0.42711   1.000
    O44     O    0.70911   0.78273   0.42744   1.000
    O45     O    0.66679   0.85356   0.51283   1.000
    O46     O    0.99755   0.82532   0.47992   1.000
    O47     O    0.94798   0.84195   0.57294   1.000
    O48     O    0.29086   0.21719   0.92747   1.000
    O49     O    0.33312   0.14635   0.01279   1.000
    O50     O    0.00229   0.17466   0.97990   1.000
    O51     O    0.34190   0.55198   0.32289   1.000
    O52     O    0.71723   0.20909   0.67747   1.000
    O53     O    0.64630   0.16687   0.76283   1.000
    O54     O    0.67477   0.49768   0.72990   1.000
    O55     O    0.65812   0.44823   0.82290   1.000
    Ts56    Ts   0.87899   0.78493   0.41624   1.000
    Ts57    Ts   0.28494   0.62100   0.16623   1.000
    Ts58    Ts   0.71520   0.37903   0.66627   1.000
    Ts59    Ts   0.37901   0.71514   0.33375   1.000
    Ts60    Ts   0.62101   0.28502   0.83353   1.000
    Ts61    Ts   0.21503   0.12096   0.08377   1.000
    Ts62    Ts   0.78484   0.87900   0.58377   1.000
    Ts63    Ts   0.12094   0.21497   0.91624   1.000
    Og64    Og   0.88842   0.30721   0.78946   1.000
    Og65    Og   0.45178   0.32820   0.70947   1.000
    Og66    Og   0.11159   0.69275   0.28942   1.000
    Og67    Og   0.54838   0.67185   0.20943   1.000
    Og68    Og   0.19265   0.38837   0.03944   1.000
    Og69    Og   0.17171   0.95157   0.95951   1.000
    Og70    Og   0.80731   0.61159   0.53945   1.000
    Og71    Og   0.82829   0.04826   0.45948   1.000
    Og72    Og   0.61158   0.80724   0.46057   1.000
    Og73    Og   0.04818   0.82823   0.54057   1.000
    Og74    Og   0.38836   0.19274   0.96058   1.000
    Og75    Og   0.95158   0.17181   0.04054   1.000
    Og76    Og   0.30731   0.88842   0.21054   1.000
    Og77    Og   0.32827   0.45176   0.29050   1.000
    Og78    Og   0.69263   0.11162   0.71058   1.000
    Og79    Og   0.67176   0.54842   0.79056   1.000
loop_
    _geom_bond_atom_site_label_1
    _geom_bond_atom_site_label_2
    _geom_bond_distance
    _geom_bond_site_symmetry_2
    _ccdc_geom_bond_type
    O49    Zn5       2.08940      .   S
    O49    C22       1.26948  1_554   S
    O38    Zn5       2.05544      .   S
    O38    C17       1.27495  1_544   S
    C23    O13       1.27091  1_655   S
    C23    O50       1.27477  1_654   S
    C12    O36       1.27094      .   S
    C12    O37       1.26945  1_554   S
    Zn5    O36       2.12325      .   S
    Zn5    O13       2.05551      .   S
    O35    Zn1       2.05501      .   S
    O35    C11       1.27125      .   S
    O14    Zn1       2.12342      .   S
    O14    C24       1.27144      .   S
    Zn1    O16       2.05477      .   S
    Zn1    O33       2.08906      .   S
    C24    O15       1.26986      .   S
    C11    O34       1.27510      .   S
    O16    C25       1.27667      .   S
    O33    C10       1.26995      .   S
    O15    Zn3       2.09040      .   S
    O34    Zn3       2.05520      .   S
    C25    O51       1.27134      .   S
    C10    O32       1.27081      .   S
    Zn3    O32       2.12306      .   S
    Zn3    O51       2.05454      .   S
    O43    Zn0       2.05449      .   S
    O43    C19       1.27117  1_565   S
    O44    Zn0       2.12303      .   S
    O44    C20       1.27086      .   S
    Zn0    O46       2.05535      .   S
    Zn0    O41       2.08973      .   S
    C20    O45       1.26988      .   S
    C19    O42       1.27518  1_545   S
    O46    C21       1.27508  1_655   S
    O41    C18       1.26989      .   S
    O45    Zn6       2.08949      .   S
    O42    Zn6       2.05556      .   S
    C21    O47       1.27097  1_455   S
    C18    O40       1.26978      .   S
    Zn6    O40       2.12312      .   S
    Zn6    O47       2.05392      .   S
    O31    Zn2       2.05426      .   S
    O31    C9        1.27129      .   S
    O52    Zn2       2.12348      .   S
    O52    C26       1.27081      .   S
    Zn2    O54       2.05560      .   S
    Zn2    O29       2.09018      .   S
    C26    O53       1.26984      .   S
    C9     O30       1.27475      .   S
    O54    C27       1.27536      .   S
    O29    C8        1.26982      .   S
    O53    Zn4       2.08932      .   S
    O30    Zn4       2.05575      .   S
    C27    O55       1.27092      .   S
    C8     O28       1.27092      .   S
    Zn4    O28       2.12267      .   S
    Zn4    O55       2.05526      .   S
    O39    Zn7       2.05562      .   S
    O39    C17       1.27119  1_545   S
    O48    Zn7       2.12276      .   S
    O48    C22       1.27098      .   S
    Zn7    O50       2.05561      .   S
    Zn7    O37       2.08981      .   S
    Zn7    Zn5       2.90976  1_556   S
    Zn0    Zn6       2.90840      .   S
    Zn1    Zn3       2.90898      .   S
    Zn2    Zn4       2.90888      .   S
    Zn0    Ts56      0.68765      .   S
    Zn1    Ts57      0.68786      .   S
    Zn2    Ts58      0.68784      .   S
    Zn3    Ts59      0.68784      .   S
    Zn4    Ts60      0.68231      .   S
    Zn5    Ts61      0.68808      .   S
    Zn6    Ts62      0.68779      .   S
    Zn7    Ts63      0.68801      .   S
    C8     Og64      0.50352      .   S
    C9     Og65      0.50088      .   S
    C10    Og66      0.50343      .   S
    C11    Og67      0.50090      .   S
    C12    Og68      0.50348      .   S
    C17    Og69      0.50090      .   S
    C18    Og70      0.50348      .   S
    C19    Og71      0.50088      .   S
    C20    Og72      0.50348      .   S
    C21    Og73      0.50086      .   S
    C22    Og74      0.50344      .   S
    C23    Og75      0.50090      .   S
    C24    Og76      0.50353      .   S
    C25    Og77      0.50088      .   S
    C26    Og78      0.50342      .   S
    C27    Og79      0.50088      .   S
