# CIF file generated by openbabel 2.4.90, see http://openbabel.sf.net
data_I
_chemical_name_common ''
_cell_length_a 13.569
_cell_length_b 13.571
_cell_length_c 23.187
_cell_angle_alpha 90.029
_cell_angle_beta 89.966
_cell_angle_gamma 90.014
_space_group_name_H-M_alt 'P 1'
_space_group_name_Hall 'P 1'
loop_
    _symmetry_equiv_pos_as_xyz
    x,y,z
loop_
    _atom_site_label
    _atom_site_type_symbol
    _atom_site_fract_x
    _atom_site_fract_y
    _atom_site_fract_z
    _atom_site_occupancy
    N0      N    0.27744   0.05902   0.19018   1.000
    N1      N    0.72244   0.94101   0.69021   1.000
    N2      N    0.94099   0.72269   0.30976   1.000
    N3      N    0.77756   0.44098   0.55981   1.000
    N4      N    0.22253   0.55900   0.05981   1.000
    N5      N    0.05900   0.27724   0.80979   1.000
    N6      N    0.55899   0.22274   0.94015   1.000
    N7      N    0.44095   0.77738   0.44021   1.000
    Zr8     Zr   0.32808   0.67198   0.24997   1.000
    O9      O    0.37111   0.71106   0.32179   1.000
    O10     O    0.17269   0.69054   0.27532   1.000
    O11     O    0.48564   0.67708   0.21869   1.000
    O12     O    0.32304   0.51448   0.28124   1.000
    O13     O    0.28896   0.62891   0.17818   1.000
    O14     O    0.30954   0.82734   0.22463   1.000
    Zr15    Zr   0.82802   0.82804   0.50001   1.000
    O16     O    0.80955   0.67267   0.52536   1.000
    O17     O    0.78888   0.87110   0.57181   1.000
    O18     O    0.82304   0.98553   0.46874   1.000
    O19     O    0.98549   0.82298   0.53129   1.000
    O20     O    0.67265   0.80949   0.47467   1.000
    O21     O    0.87109   0.78898   0.42819   1.000
    Zr22    Zr   0.67198   0.32808   0.75002   1.000
    O23     O    0.62891   0.28904   0.82171   1.000
    O24     O    0.71113   0.37113   0.67822   1.000
    O25     O    0.69044   0.17270   0.72467   1.000
    O26     O    0.51449   0.32297   0.71874   1.000
    O27     O    0.67698   0.48566   0.78129   1.000
    O28     O    0.82734   0.30947   0.77536   1.000
    Zr29    Zr   0.17188   0.17190   0.00002   1.000
    O30     O    0.17692   0.01433   0.96856   1.000
    O31     O    0.01432   0.17702   0.03129   1.000
    O32     O    0.32727   0.19051   0.97466   1.000
    O33     O    0.19042   0.32729   0.02536   1.000
    O34     O    0.12884   0.21094   0.92820   1.000
    O35     O    0.21100   0.12886   0.07181   1.000
loop_
    _geom_bond_atom_site_label_1
    _geom_bond_atom_site_label_2
    _geom_bond_distance
    _geom_bond_site_symmetry_2
    _ccdc_geom_bond_type
    Zr8    O9        1.84263      .   S
    N7     O9        3.04112      .   S
    Zr8    O10       2.20296      .   S
    N2     O10       3.27264  1_655   S
    Zr8    O11       2.25828      .   S
    N2     O11       6.55974      .   S
    Zr8    O12       2.25838      .   S
    N0     O12       6.56006      .   S
    Zr8    O13       1.84231      .   S
    N4     O13       3.04076      .   S
    Zr8    O14       2.20356      .   S
    N0     O14       3.27356  1_545   S
    Zr15   O16       2.20339      .   S
    N3     O16       3.27328      .   S
    Zr15   O17       1.84218      .   S
    N1     O17       3.04048      .   S
    Zr15   O18       2.25835      .   S
    N3     O18       6.55981  1_545   S
    Zr15   O19       2.25785      .   S
    N7     O19       6.55912  1_455   S
    Zr15   O20       2.20332      .   S
    N7     O20       3.27327      .   S
    Zr15   O21       1.84213      .   S
    N2     O21       3.04043      .   S
    Zr22   O23       1.83985      .   S
    N6     O23       3.04154      .   S
    Zr22   O24       1.84249      .   S
    N3     O24       3.04104      .   S
    Zr22   O25       2.20303      .   S
    N1     O25       3.27284  1_565   S
    Zr22   O26       2.25808      .   S
    N5     O26       6.55939      .   S
    Zr22   O27       2.25874      .   S
    N1     O27       6.56034      .   S
    Zr22   O28       2.20343      .   S
    N5     O28       3.27325  1_455   S
    Zr29   O30       2.26007  1_554   S
    N4     O30       6.56206  1_564   S
    Zr29   O31       2.25820      .   S
    N6     O31       6.56063  1_656   S
    Zr29   O32       2.20312  1_554   S
    N6     O32       3.27322      .   S
    Zr29   O33       2.20319      .   S
    N4     O33       3.27311      .   S
    Zr29   O34       1.84294  1_554   S
    N5     O34       3.04168      .   S
    Zr29   O35       1.84288      .   S
    N0     O35       3.04149      .   S
