# CIF file generated by openbabel 2.4.90, see http://openbabel.sf.net
data_I
_chemical_name_common ''
_cell_length_a 13.569
_cell_length_b 13.571
_cell_length_c 23.187
_cell_angle_alpha 90.029
_cell_angle_beta 89.966
_cell_angle_gamma 90.014
_space_group_name_H-M_alt 'P 1'
_space_group_name_Hall 'P 1'
loop_
    _symmetry_equiv_pos_as_xyz
    x,y,z
loop_
    _atom_site_label
    _atom_site_type_symbol
    _atom_site_fract_x
    _atom_site_fract_y
    _atom_site_fract_z
    _atom_site_occupancy
    Zr0     Zr   0.13762   0.19945   0.94274   1.000
    Zr1     Zr   0.86234   0.80046   0.44274   1.000
    Zr2     Zr   0.30052   0.63767   0.19272   1.000
    Zr3     Zr   0.69961   0.36237   0.69276   1.000
    Zr4     Zr   0.36235   0.69958   0.30725   1.000
    Zr5     Zr   0.63768   0.30054   0.80729   1.000
    Zr6     Zr   0.19945   0.13763   0.05728   1.000
    Zr7     Zr   0.80043   0.86235   0.55727   1.000
    Zr8     Zr   0.85247   0.31271   0.78518   1.000
    Zr9     Zr   0.48684   0.33112   0.71600   1.000
    Zr10    Zr   0.14756   0.68726   0.28514   1.000
    Zr11    Zr   0.51331   0.66892   0.21596   1.000
    Zr12    Zr   0.18717   0.35241   0.03516   1.000
    Zr13    Zr   0.16883   0.98664   0.96604   1.000
    Zr14    Zr   0.81276   0.64755   0.53516   1.000
    Zr15    Zr   0.83117   0.01320   0.46601   1.000
    Zr16    Zr   0.64754   0.81273   0.46485   1.000
    Zr17    Zr   0.01312   0.83113   0.53404   1.000
    Zr18    Zr   0.35240   0.18723   0.96486   1.000
    Zr19    Zr   0.98665   0.16890   0.03401   1.000
    Zr20    Zr   0.31279   0.85247   0.21482   1.000
    Zr21    Zr   0.33117   0.48682   0.28398   1.000
    Zr22    Zr   0.68718   0.14758   0.71486   1.000
    Zr23    Zr   0.66889   0.51335   0.78403   1.000
    Zr24    Zr   0.79087   0.28276   0.82258   1.000
    Zr25    Zr   0.83325   0.35359   0.73724   1.000
    Zr26    Zr   0.50245   0.32534   0.77010   1.000
    Zr27    Zr   0.55202   0.34191   0.67710   1.000
    Zr28    Zr   0.20909   0.71725   0.32254   1.000
    Zr29    Zr   0.16685   0.64634   0.23718   1.000
    Zr30    Zr   0.49763   0.67477   0.27008   1.000
    Zr31    Zr   0.44819   0.65813   0.17707   1.000
    Zr32    Zr   0.21717   0.29089   0.07254   1.000
    Zr33    Zr   0.14630   0.33313   0.98723   1.000
    Zr34    Zr   0.17465   0.00232   0.02015   1.000
    Zr35    Zr   0.15807   0.05174   0.92715   1.000
    Zr36    Zr   0.78274   0.70910   0.57250   1.000
    Zr37    Zr   0.85360   0.66681   0.48718   1.000
    Zr38    Zr   0.82529   0.99760   0.52013   1.000
    Zr39    Zr   0.84193   0.94805   0.42711   1.000
    Zr40    Zr   0.70911   0.78273   0.42744   1.000
    Zr41    Zr   0.66679   0.85356   0.51283   1.000
    Zr42    Zr   0.99755   0.82532   0.47992   1.000
    Zr43    Zr   0.94798   0.84195   0.57294   1.000
    Zr44    Zr   0.29086   0.21719   0.92747   1.000
    Zr45    Zr   0.33312   0.14635   0.01279   1.000
    Zr46    Zr   0.00229   0.17466   0.97990   1.000
    Zr47    Zr   0.05173   0.15808   0.07289   1.000
    Zr48    Zr   0.28278   0.79089   0.17740   1.000
    Zr49    Zr   0.35363   0.83323   0.26277   1.000
    Zr50    Zr   0.32533   0.50245   0.22980   1.000
    Zr51    Zr   0.34190   0.55198   0.32289   1.000
    Zr52    Zr   0.71723   0.20909   0.67747   1.000
    Zr53    Zr   0.64630   0.16687   0.76283   1.000
    Zr54    Zr   0.67477   0.49768   0.72990   1.000
    Zr55    Zr   0.65812   0.44823   0.82290   1.000
    O56     O    0.26629   0.14199   0.03503   1.000
    O57     O    0.34276   0.16679   0.98882   1.000
    O58     O    0.18705   0.06997   0.03871   1.000
    O59     O    0.17174   0.99448   0.99310   1.000
    O60     O    0.01919   0.16349   0.05345   1.000
    O61     O    0.99447   0.17178   0.00696   1.000
    O62     O    0.20217   0.32165   0.05385   1.000
    O63     O    0.16674   0.34277   0.01120   1.000
    O64     O    0.20831   0.21426   0.06491   1.000
    O65     O    0.12559   0.14785   0.06508   1.000
    O66     O    0.37436   0.64790   0.18490   1.000
    O67     O    0.48075   0.66353   0.19652   1.000
    O68     O    0.29165   0.71428   0.18506   1.000
    O69     O    0.29778   0.82168   0.19611   1.000
    O70     O    0.31292   0.57006   0.21126   1.000
    O71     O    0.23368   0.64200   0.21495   1.000
    O72     O    0.33321   0.84285   0.23880   1.000
    O73     O    0.50547   0.67184   0.24302   1.000
    O74     O    0.32825   0.49464   0.25689   1.000
    O75     O    0.15720   0.66680   0.26116   1.000
    O76     O    0.35799   0.76640   0.28501   1.000
    O77     O    0.42999   0.68717   0.28867   1.000
    O78     O    0.33654   0.51940   0.30344   1.000
    O79     O    0.17832   0.70225   0.30384   1.000
    O80     O    0.28572   0.70841   0.31490   1.000
    O81     O    0.35213   0.62578   0.31507   1.000
    O82     O    0.85214   0.87425   0.43493   1.000
    O83     O    0.83655   0.98062   0.44656   1.000
    O84     O    0.78572   0.79159   0.43509   1.000
    O85     O    0.67832   0.79773   0.44614   1.000
    O86     O    0.92994   0.81289   0.46133   1.000
    O87     O    0.85797   0.73363   0.46496   1.000
    O88     O    0.65716   0.83314   0.48884   1.000
    O89     O    0.82823   0.00540   0.49307   1.000
    O90     O    0.00534   0.82822   0.50698   1.000
    O91     O    0.83318   0.65718   0.51117   1.000
    O92     O    0.73361   0.85795   0.53505   1.000
    O93     O    0.81286   0.92997   0.53870   1.000
    O94     O    0.98055   0.83654   0.55349   1.000
    O95     O    0.79775   0.67833   0.55383   1.000
    O96     O    0.79158   0.78573   0.56489   1.000
    O97     O    0.87420   0.85215   0.56511   1.000
    O98     O    0.62581   0.35214   0.68493   1.000
    O99     O    0.51943   0.33652   0.69655   1.000
    O100    O    0.70842   0.28573   0.68512   1.000
    O101    O    0.70221   0.17833   0.69617   1.000
    O102    O    0.68719   0.43002   0.71133   1.000
    O103    O    0.76643   0.35798   0.71500   1.000
    O104    O    0.66674   0.15722   0.73884   1.000
    O105    O    0.49465   0.32823   0.74305   1.000
    O106    O    0.67183   0.50551   0.75697   1.000
    O107    O    0.84286   0.33315   0.76121   1.000
    O108    O    0.64199   0.23371   0.78506   1.000
    O109    O    0.57007   0.31294   0.78870   1.000
    O110    O    0.66350   0.48079   0.80346   1.000
    O111    O    0.82167   0.29774   0.80388   1.000
    O112    O    0.71427   0.29165   0.81494   1.000
    O113    O    0.64790   0.37439   0.81510   1.000
    O114    O    0.14784   0.12559   0.93495   1.000
    O115    O    0.16345   0.01919   0.94660   1.000
    O116    O    0.21424   0.20832   0.93511   1.000
    O117    O    0.32163   0.20221   0.94617   1.000
    O118    O    0.06995   0.18705   0.96132   1.000
    O119    O    0.14196   0.26629   0.96499   1.000
    O120    O    0.16854   0.16854   0.00001   1.000
    O121    O    0.83138   0.83140   0.50001   1.000
    O122    O    0.33143   0.66862   0.24999   1.000
    O123    O    0.66864   0.33145   0.75002   1.000
    N124    N    0.27744   0.05902   0.19018   1.000
    O125    O    0.29100   0.98271   0.19929   1.000
    O126    O    0.25013   0.08582   0.14360   1.000
    O127    O    0.31801   0.35699   0.31251   1.000
    N128    N    0.72244   0.94101   0.69021   1.000
    O129    O    0.70890   0.01732   0.69933   1.000
    O130    O    0.74974   0.91417   0.64361   1.000
    O131    O    0.68199   0.64323   0.81257   1.000
    N132    N    0.94099   0.72269   0.30976   1.000
    O133    O    0.01730   0.70909   0.30066   1.000
    O134    O    0.91416   0.74993   0.35637   1.000
    O135    O    0.64320   0.68218   0.18741   1.000
    N136    N    0.77756   0.44098   0.55981   1.000
    O137    O    0.79107   0.51730   0.55070   1.000
    O138    O    0.75028   0.41417   0.60642   1.000
    O139    O    0.81805   0.14302   0.43747   1.000
    N140    N    0.22253   0.55900   0.05981   1.000
    O141    O    0.20896   0.48267   0.05070   1.000
    O142    O    0.24984   0.58583   0.10639   1.000
    O143    O    0.18197   0.85676   0.93710   1.000
    N144    N    0.05900   0.27724   0.80979   1.000
    O145    O    0.98270   0.29085   0.80070   1.000
    O146    O    0.08580   0.24999   0.85639   1.000
    O147    O    0.35701   0.31786   0.68746   1.000
    N148    N    0.55899   0.22274   0.94015   1.000
    O149    O    0.48266   0.20912   0.94930   1.000
    O150    O    0.58583   0.25000   0.89340   1.000
    O151    O    0.85676   0.18215   0.06256   1.000
    N152    N    0.44095   0.77738   0.44021   1.000
    O153    O    0.41414   0.75015   0.39360   1.000
    O154    O    0.51727   0.79094   0.44932   1.000
    O155    O    0.14295   0.81791   0.56257   1.000
loop_
    _geom_bond_atom_site_label_1
    _geom_bond_atom_site_label_2
    _geom_bond_distance
    _geom_bond_site_symmetry_2
    _ccdc_geom_bond_type
    Zr45   O56       1.04470      .   S
    Zr6    O56       1.04470      .   S
    Zr45   O57       0.63474  1_554   S
    Zr18   O57       0.63474      .   S
    Zr34   O58       1.02772      .   S
    Zr6    O58       1.02772      .   S
    Zr34   O59       0.63748  1_544   S
    Zr13   O59       0.63748      .   S
    Zr19   O60       0.63545  1_655   S
    Zr47   O60       0.63545      .   S
    Zr19   O61       0.63739      .   S
    Zr46   O61       0.63739  1_456   S
    Zr12   O62       0.63547      .   S
    Zr32   O62       0.63547      .   S
    Zr12   O63       0.63472      .   S
    Zr33   O63       0.63472  1_556   S
    Zr6    O64       1.06163      .   S
    Zr32   O64       1.06163      .   S
    Zr6    O65       1.02776      .   S
    Zr47   O65       1.02776      .   S
    Zr31   O66       1.02750      .   S
    Zr2    O66       1.02750      .   S
    Zr31   O67       0.63563      .   S
    Zr11   O67       0.63563      .   S
    Zr48   O68       1.06171      .   S
    Zr2    O68       1.06171      .   S
    Zr48   O69       0.63572      .   S
    Zr20   O69       0.63572      .   S
    Zr2    O70       1.02738      .   S
    Zr50   O70       1.02738      .   S
    Zr2    O71       1.04453      .   S
    Zr29   O71       1.04453      .   S
    Zr20   O72       0.63493      .   S
    Zr49   O72       0.63493      .   S
    Zr11   O73       0.63755      .   S
    Zr30   O73       0.63755      .   S
    Zr50   O74       0.63833      .   S
    Zr21   O74       0.63833      .   S
    Zr29   O75       0.63497      .   S
    Zr10   O75       0.63497      .   S
    Zr49   O76       1.04520      .   S
    Zr4    O76       1.04520      .   S
    Zr30   O77       1.02760      .   S
    Zr4    O77       1.02760      .   S
    Zr21   O78       0.63567      .   S
    Zr51   O78       0.63567      .   S
    Zr10   O79       0.63540      .   S
    Zr28   O79       0.63540      .   S
    Zr4    O80       1.06153      .   S
    Zr28   O80       1.06153      .   S
    Zr4    O81       1.02727      .   S
    Zr51   O81       1.02727      .   S
    Zr39   O82       1.02725      .   S
    Zr1    O82       1.02725      .   S
    Zr39   O83       0.63558      .   S
    Zr15   O83       0.63558  1_545   S
    Zr40   O84       1.06151      .   S
    Zr1    O84       1.06151      .   S
    Zr40   O85       0.63543      .   S
    Zr16   O85       0.63543      .   S
    Zr1    O86       1.02767      .   S
    Zr42   O86       1.02767      .   S
    Zr1    O87       1.04486      .   S
    Zr37   O87       1.04486      .   S
    Zr16   O88       0.63494      .   S
    Zr41   O88       0.63494      .   S
    Zr15   O89       0.63759      .   S
    Zr38   O89       0.63759  1_565   S
    Zr42   O90       0.63754  1_655   S
    Zr17   O90       0.63754      .   S
    Zr37   O91       0.63495      .   S
    Zr14   O91       0.63495      .   S
    Zr41   O92       1.04475      .   S
    Zr7    O92       1.04475      .   S
    Zr38   O93       1.02778      .   S
    Zr7    O93       1.02778      .   S
    Zr17   O94       0.63548  1_455   S
    Zr43   O94       0.63548      .   S
    Zr14   O95       0.63489      .   S
    Zr36   O95       0.63489      .   S
    Zr7    O96       1.06156      .   S
    Zr36   O96       1.06156      .   S
    Zr7    O97       1.02696      .   S
    Zr43   O97       1.02696      .   S
    Zr27   O98       1.02713      .   S
    Zr3    O98       1.02713      .   S
    Zr27   O99       0.63564      .   S
    Zr9    O99       0.63564      .   S
    Zr52   O100      1.06174      .   S
    Zr3    O100      1.06174      .   S
    Zr52   O101      0.63540      .   S
    Zr22   O101      0.63540      .   S
    Zr3    O102      1.02780      .   S
    Zr54   O102      1.02780      .   S
    Zr3    O103      1.04509      .   S
    Zr25   O103      1.04509      .   S
    Zr22   O104      0.63492      .   S
    Zr53   O104      0.63492      .   S
    Zr9    O105      0.63738      .   S
    Zr26   O105      0.63738      .   S
    Zr54   O106      0.63768      .   S
    Zr23   O106      0.63768      .   S
    Zr25   O107      0.63491      .   S
    Zr8    O107      0.63491      .   S
    Zr53   O108      1.04466      .   S
    Zr5    O108      1.04466      .   S
    Zr26   O109      1.02787      .   S
    Zr5    O109      1.02787      .   S
    Zr23   O110      0.63546      .   S
    Zr55   O110      0.63546      .   S
    Zr8    O111      0.63546      .   S
    Zr24   O111      0.63546      .   S
    Zr5    O112      1.06133      .   S
    Zr24   O112      1.06133      .   S
    Zr5    O113      1.02763      .   S
    Zr55   O113      1.02763      .   S
    Zr35   O114      1.02781      .   S
    Zr0    O114      1.02781      .   S
    Zr35   O115      0.63560      .   S
    Zr13   O115      0.63560  1_565   S
    Zr44   O116      1.06138      .   S
    Zr0    O116      1.06138      .   S
    Zr44   O117      0.63549      .   S
    Zr18   O117      0.63549      .   S
    Zr0    O118      1.02780      .   S
    Zr46   O118      1.02780      .   S
    Zr0    O119      1.04490      .   S
    Zr33   O119      1.04490      .   S
    Zr0    O120      1.45488  1_556   S
    Zr6    O120      1.45488      .   S
    Zr1    O121      1.45420      .   S
    Zr7    O121      1.45420      .   S
    Zr2    O122      1.45449      .   S
    Zr4    O122      1.45449      .   S
    Zr3    O123      1.45444      .   S
    Zr5    O123      1.45444      .   S
    N124   O125      1.07297  1_545   S
    Zr20   O125      1.82814      .   S
    N124   O126      1.19884      .   S
    Zr6    O126      2.23075      .   S
    N124   O127      4.96889      .   S
    Zr21   O127      1.89080      .   S
    N128   O129      1.07278  1_565   S
    Zr22   O129      1.82778      .   S
    N128   O130      1.19853      .   S
    Zr7    O130      2.23003      .   S
    N128   O131      4.96896      .   S
    Zr23   O131      1.89083      .   S
    N132   O133      1.07268  1_655   S
    Zr10   O133      1.82769      .   S
    N132   O134      1.19852      .   S
    Zr1    O134      2.22981      .   S
    N132   O135      4.96879      .   S
    Zr11   O135      1.89090      .   S
    N136   O137      1.07285      .   S
    Zr14   O137      1.82794      .   S
    N136   O138      1.19877      .   S
    Zr3    O138      2.23034      .   S
    N136   O139      4.96862      .   S
    Zr15   O139      1.89076      .   S
    N140   O141      1.07289      .   S
    Zr12   O141      1.82797      .   S
    N140   O142      1.19867      .   S
    Zr2    O142      2.23027      .   S
    N140   O143      4.97417  1_554   S
    Zr13   O143      1.89414      .   S
    N144   O145      1.07280  1_455   S
    Zr8    O145      1.82795      .   S
    N144   O146      1.19897      .   S
    Zr0    O146      2.23078      .   S
    N144   O147      4.96871      .   S
    Zr9    O147      1.89084      .   S
    N148   O149      1.07305      .   S
    Zr18   O149      1.82808      .   S
    N148   O150      1.20191      .   S
    Zr5    O150      2.22512      .   S
    N148   O151      4.97004  1_556   S
    Zr19   O151      1.89093      .   S
    N152   O153      1.19871      .   S
    Zr4    O153      2.23028      .   S
    N152   O154      1.07292      .   S
    Zr16   O154      1.82801      .   S
    N152   O155      4.96872      .   S
    Zr17   O155      1.89072      .   S
