# CIF file generated by openbabel 2.4.90, see http://openbabel.sf.net
data_I
_chemical_name_common ''
_cell_length_a 6.045
_cell_length_b 14.041
_cell_length_c 15.6335
_cell_angle_alpha 90.032
_cell_angle_beta 90.648
_cell_angle_gamma 90.003
_space_group_name_H-M_alt 'P 1'
_space_group_name_Hall 'P 1'
loop_
    _symmetry_equiv_pos_as_xyz
    x,y,z
loop_
    _atom_site_label
    _atom_site_type_symbol
    _atom_site_fract_x
    _atom_site_fract_y
    _atom_site_fract_z
    _atom_site_occupancy
    C0      C    0.22850   0.13250   0.89706   1.000
    C1      C    0.28764   0.37733   0.63836   1.000
    C2      C    0.27160   0.63238   0.60294   1.000
    C3      C    0.21206   0.87567   0.86298   1.000
    C4      C    0.77158   0.86749   0.10294   1.000
    C5      C    0.71244   0.62266   0.36165   1.000
    C6      C    0.72847   0.36761   0.39706   1.000
    C7      C    0.78801   0.12432   0.13702   1.000
