# CIF file generated by openbabel 2.4.90, see http://openbabel.sf.net
data_I
_chemical_name_common ''
_cell_length_a 6.045
_cell_length_b 14.041
_cell_length_c 15.6335
_cell_angle_alpha 90.032
_cell_angle_beta 90.648
_cell_angle_gamma 90.003
_space_group_name_H-M_alt 'P 1'
_space_group_name_Hall 'P 1'
loop_
    _symmetry_equiv_pos_as_xyz
    x,y,z
loop_
    _atom_site_label
    _atom_site_type_symbol
    _atom_site_fract_x
    _atom_site_fract_y
    _atom_site_fract_z
    _atom_site_occupancy
    Zr0     Zr   0.26671   0.00845   0.06126   1.000
    Zr1     Zr   0.23340   0.50817   0.43857   1.000
    Zr2     Zr   0.73338   0.99153   0.93874   1.000
    Zr3     Zr   0.76667   0.49182   0.56143   1.000
    N4      N    0.94166   0.75077   0.24338   1.000
    N5      N    0.44142   0.74803   0.74427   1.000
    N6      N    0.55865   0.25196   0.25574   1.000
    N7      N    0.05842   0.24921   0.75663   1.000
    C8      C    0.25954   0.61489   0.58235   1.000
    O9      O    0.31405   0.66048   0.63709   1.000
    O10     O    0.08924   0.58441   0.57687   1.000
    O11     O    0.43039   0.57946   0.57222   1.000
    C12     C    0.74052   0.38510   0.41765   1.000
    O13     O    0.56967   0.42053   0.42778   1.000
    O14     O    0.68602   0.33951   0.36291   1.000
    O15     O    0.91083   0.41558   0.42313   1.000
    C16     C    0.30978   0.39498   0.62106   1.000
    O17     O    0.25008   0.42776   0.56648   1.000
    O18     O    0.13340   0.42367   0.59720   1.000
    O19     O    0.23096   0.34573   0.66745   1.000
    O20     O    0.47015   0.41913   0.61078   1.000
    C21     C    0.69029   0.60501   0.37894   1.000
    O22     O    0.86667   0.57632   0.40281   1.000
    O23     O    0.74999   0.57223   0.43352   1.000
    O24     O    0.76912   0.65426   0.33255   1.000
    O25     O    0.52993   0.58086   0.38922   1.000
    C26     C    0.81015   0.10664   0.11970   1.000
    O27     O    0.63353   0.07725   0.09641   1.000
    O28     O    0.75020   0.07302   0.06578   1.000
    O29     O    0.97059   0.08252   0.10944   1.000
    O30     O    0.73129   0.15577   0.16623   1.000
    C31     C    0.24052   0.11481   0.91750   1.000
    O32     O    0.06966   0.07927   0.92766   1.000
    O33     O    0.18596   0.16085   0.86312   1.000
    O34     O    0.41082   0.08430   0.92308   1.000
    C35     C    0.75955   0.88518   0.08250   1.000
    O36     O    0.93041   0.92072   0.07235   1.000
    O37     O    0.58925   0.91569   0.07693   1.000
    O38     O    0.81412   0.83914   0.13688   1.000
    C39     C    0.18993   0.89335   0.88030   1.000
    O40     O    0.26878   0.84422   0.83377   1.000
    O41     O    0.24988   0.92697   0.93422   1.000
    O42     O    0.36655   0.92274   0.90359   1.000
    O43     O    0.02950   0.91747   0.89055   1.000
    O44     O    0.24857   0.08601   0.95600   1.000
    O45     O    0.75150   0.91398   0.04401   1.000
    O46     O    0.74857   0.41397   0.45617   1.000
    O47     O    0.25150   0.58602   0.54383   1.000
loop_
    _geom_bond_atom_site_label_1
    _geom_bond_atom_site_label_2
    _geom_bond_distance
    _geom_bond_site_symmetry_2
    _ccdc_geom_bond_type
    C8     O9        1.11523      .   S
    N5     O9        2.20901      .   S
    C8     O10       1.11721      .   S
    Zr3    O10       2.35359  1_655   S
    C8     O11       1.15886      .   S
    Zr3    O11       2.38383      .   S
    C12    O13       1.15884      .   S
    Zr1    O13       2.38377      .   S
    C12    O14       1.11523      .   S
    N6     O14       2.20900      .   S
    C12    O15       1.11723      .   S
    Zr1    O15       2.35363  1_455   S
    C16    O17       1.03124      .   S
    Zr1    O17       2.29815      .   S
    C16    O18       1.19561      .   S
    Zr3    O18       2.47296  1_655   S
    C16    O19       1.11339      .   S
    N7     O19       2.21423      .   S
    C16    O20       1.04118      .   S
    Zr3    O20       2.20957      .   S
    C21    O22       1.19562      .   S
    Zr1    O22       2.47299  1_455   S
    C21    O23       1.03125      .   S
    Zr3    O23       2.29814      .   S
    C21    O24       1.11340      .   S
    N4     O24       2.21424      .   S
    C21    O25       1.04116      .   S
    Zr1    O25       2.20955      .   S
    C26    O27       1.19742      .   S
    Zr0    O27       2.47459      .   S
    C26    O28       1.02834      .   S
    Zr2    O28       2.29275  1_566   S
    C26    O29       1.04139      .   S
    Zr0    O29       2.20973  1_455   S
    C26    O30       1.11342      .   S
    N6     O30       2.21409      .   S
    C31    O32       1.15970      .   S
    Zr2    O32       2.38493  1_665   S
    C31    O33       1.11518      .   S
    N7     O33       2.20889      .   S
    C31    O34       1.11759      .   S
    Zr2    O34       2.35547  1_565   S
    C35    O36       1.15971      .   S
    Zr0    O36       2.38497  1_445   S
    C35    O37       1.11756      .   S
    Zr0    O37       2.35542  1_545   S
    C35    O38       1.11520      .   S
    N4     O38       2.20890      .   S
    C39    O40       1.11340      .   S
    N5     O40       2.21408      .   S
    C39    O41       1.02834      .   S
    Zr0    O41       2.29275  1_544   S
    C39    O42       1.19742      .   S
    Zr2    O42       2.47461      .   S
    C39    O43       1.04136      .   S
    Zr2    O43       2.20973  1_655   S
    C31    O44       0.72642      .   S
    Zr0    O44       1.97589  1_554   S
    C35    O45       0.72641      .   S
    Zr2    O45       1.97586  1_556   S
    Zr3    O46       1.97705      .   S
    C12    O46       0.72685      .   S
    Zr1    O47       1.97702      .   S
    C8     O47       0.72684      .   S
