# CIF file generated by openbabel 2.4.90, see http://openbabel.sf.net
data_I
_chemical_name_common ''
_cell_length_a 6.045
_cell_length_b 14.041
_cell_length_c 15.6335
_cell_angle_alpha 90.032
_cell_angle_beta 90.648
_cell_angle_gamma 90.003
_space_group_name_H-M_alt 'P 1'
_space_group_name_Hall 'P 1'
loop_
    _symmetry_equiv_pos_as_xyz
    x,y,z
loop_
    _atom_site_label
    _atom_site_type_symbol
    _atom_site_fract_x
    _atom_site_fract_y
    _atom_site_fract_z
    _atom_site_occupancy
    Zr0     Zr   0.26671   0.00845   0.06126   1.000
    Zr1     Zr   0.23340   0.50817   0.43857   1.000
    Zr2     Zr   0.73338   0.99153   0.93874   1.000
    Zr3     Zr   0.76667   0.49182   0.56143   1.000
    Zr4     Zr   0.22850   0.13250   0.89706   1.000
    Zr5     Zr   0.28764   0.37733   0.63836   1.000
    Zr6     Zr   0.27160   0.63238   0.60294   1.000
    Zr7     Zr   0.21206   0.87567   0.86298   1.000
    Zr8     Zr   0.77158   0.86749   0.10294   1.000
    Zr9     Zr   0.71244   0.62266   0.36165   1.000
    Zr10    Zr   0.72847   0.36761   0.39706   1.000
    Zr11    Zr   0.78801   0.12432   0.13702   1.000
    Zr12    Zr   0.42887   0.11604   0.91856   1.000
    Zr13    Zr   0.06421   0.09591   0.93688   1.000
    Zr14    Zr   0.49435   0.39472   0.63957   1.000
    Zr15    Zr   0.14736   0.41290   0.58524   1.000
    Zr16    Zr   0.07120   0.61606   0.58137   1.000
    Zr17    Zr   0.43582   0.59623   0.56274   1.000
    Zr18    Zr   0.00476   0.89166   0.86288   1.000
    Zr19    Zr   0.35297   0.91273   0.91503   1.000
    Zr20    Zr   0.57121   0.88395   0.08144   1.000
    Zr21    Zr   0.93585   0.90408   0.06312   1.000
    Zr22    Zr   0.50572   0.60527   0.36043   1.000
    Zr23    Zr   0.85271   0.58709   0.41476   1.000
    Zr24    Zr   0.92887   0.38393   0.41863   1.000
    Zr25    Zr   0.56424   0.40376   0.43726   1.000
    Zr26    Zr   0.99533   0.10833   0.13711   1.000
    Zr27    Zr   0.64711   0.08726   0.08497   1.000
    O28     O    0.10128   0.95627   0.06219   1.000
    O29     O    0.13102   0.05839   0.09919   1.000
    O30     O    0.85372   0.88579   0.08303   1.000
    O31     O    0.67139   0.87572   0.09219   1.000
    O32     O    0.71756   0.10579   0.11099   1.000
    O33     O    0.89167   0.11633   0.13707   1.000
    O34     O    0.60908   0.61396   0.36104   1.000
    O35     O    0.36956   0.55672   0.39950   1.000
    O36     O    0.78258   0.60487   0.38820   1.000
    O37     O    0.82867   0.37577   0.40785   1.000
    O38     O    0.64635   0.38569   0.41716   1.000
    O39     O    0.39882   0.45596   0.43792   1.000
    O40     O    0.60125   0.54403   0.56208   1.000
    O41     O    0.63051   0.44327   0.60050   1.000
    O42     O    0.35371   0.61430   0.58284   1.000
    O43     O    0.17140   0.62422   0.59215   1.000
    O44     O    0.21750   0.39511   0.61180   1.000
    O45     O    0.39099   0.38603   0.63897   1.000
    O46     O    0.10841   0.88366   0.86293   1.000
    O47     O    0.86907   0.94160   0.90081   1.000
    O48     O    0.28251   0.89420   0.88901   1.000
    O49     O    0.32868   0.12427   0.90781   1.000
    O50     O    0.14635   0.11420   0.91697   1.000
    O51     O    0.89879   0.04372   0.93781   1.000
    O52     O    0.34779   0.06225   0.98991   1.000
    O53     O    0.58112   0.05378   0.92865   1.000
    O54     O    0.16546   0.05218   0.99907   1.000
    O55     O    0.19038   0.46053   0.51191   1.000
    O56     O    0.95702   0.45236   0.57333   1.000
    O57     O    0.15230   0.56211   0.50997   1.000
    O58     O    0.91894   0.55394   0.57140   1.000
    O59     O    0.33461   0.55220   0.50066   1.000
    O60     O    0.30984   0.96059   0.98815   1.000
    O61     O    0.54317   0.95213   0.92689   1.000
    O62     O    0.41896   0.94620   0.07135   1.000
    O63     O    0.65229   0.93774   0.01009   1.000
    O64     O    0.83462   0.94781   0.00093   1.000
    O65     O    0.04306   0.54763   0.42667   1.000
    O66     O    0.80969   0.53946   0.48810   1.000
    O67     O    0.08114   0.44605   0.42860   1.000
    O68     O    0.84777   0.43788   0.49003   1.000
    O69     O    0.66546   0.44779   0.49934   1.000
    O70     O    0.45691   0.04786   0.07312   1.000
    O71     O    0.69024   0.03940   0.01186   1.000
    N72     N    0.94166   0.75077   0.24338   1.000
    O73     O    0.84794   0.70351   0.28616   1.000
    O74     O    0.86869   0.79310   0.19126   1.000
    N75     N    0.44142   0.74803   0.74427   1.000
    O76     O    0.36855   0.70607   0.69183   1.000
    O77     O    0.34764   0.79508   0.78724   1.000
    N78     N    0.55865   0.25196   0.25574   1.000
    O79     O    0.65243   0.20491   0.21276   1.000
    O80     O    0.63151   0.29391   0.30817   1.000
    N81     N    0.05842   0.24921   0.75663   1.000
    O82     O    0.13139   0.20689   0.80875   1.000
    O83     O    0.15213   0.29648   0.71384   1.000
loop_
    _geom_bond_atom_site_label_1
    _geom_bond_atom_site_label_2
    _geom_bond_distance
    _geom_bond_site_symmetry_2
    _ccdc_geom_bond_type
    Zr0    O28       1.23991  1_545   S
    Zr21   O28       1.23991  1_655   S
    Zr0    O29       1.23554      .   S
    Zr26   O29       1.23554  1_655   S
    Zr21   O30       0.64264      .   S
    Zr8    O30       0.64264      .   S
    Zr20   O31       0.63725      .   S
    Zr8    O31       0.63725      .   S
    Zr27   O32       0.64074      .   S
    Zr11   O32       0.64074      .   S
    Zr11   O33       0.63660      .   S
    Zr26   O33       0.63660      .   S
    Zr22   O34       0.63657      .   S
    Zr9    O34       0.63657      .   S
    Zr22   O35       1.23577      .   S
    Zr1    O35       1.23577      .   S
    Zr9    O36       0.64082      .   S
    Zr23   O36       0.64082      .   S
    Zr10   O37       0.63726      .   S
    Zr24   O37       0.63726      .   S
    Zr10   O38       0.64263      .   S
    Zr25   O38       0.64263      .   S
    Zr25   O39       1.23999      .   S
    Zr1    O39       1.23999      .   S
    Zr3    O40       1.24003      .   S
    Zr17   O40       1.24003      .   S
    Zr3    O41       1.23577      .   S
    Zr14   O41       1.23577      .   S
    Zr17   O42       0.64264      .   S
    Zr6    O42       0.64264      .   S
    Zr16   O43       0.63727      .   S
    Zr6    O43       0.63727      .   S
    Zr15   O44       0.64081      .   S
    Zr5    O44       0.64081      .   S
    Zr5    O45       0.63656      .   S
    Zr14   O45       0.63656      .   S
    Zr18   O46       0.63654      .   S
    Zr7    O46       0.63654      .   S
    Zr18   O47       1.23557  1_455   S
    Zr2    O47       1.23557      .   S
    Zr7    O48       0.64074      .   S
    Zr19   O48       0.64074      .   S
    Zr4    O49       0.63725      .   S
    Zr12   O49       0.63725      .   S
    Zr4    O50       0.64264      .   S
    Zr13   O50       0.64264      .   S
    Zr13   O51       1.23989  1_455   S
    Zr2    O51       1.23989  1_565   S
    Zr12   O52       1.43812      .   S
    Zr0    O52       1.43812  1_554   S
    Zr12   O53       1.27787      .   S
    Zr2    O53       1.27787  1_565   S
    Zr13   O54       1.29773      .   S
    Zr0    O54       1.29773  1_554   S
    Zr15   O55       1.35534      .   S
    Zr1    O55       1.35534      .   S
    Zr15   O56       1.28877  1_455   S
    Zr3    O56       1.28877      .   S
    Zr16   O57       1.43923      .   S
    Zr1    O57       1.43923      .   S
    Zr16   O58       1.27621  1_455   S
    Zr3    O58       1.27621      .   S
    Zr17   O59       1.29784      .   S
    Zr1    O59       1.29784      .   S
    Zr19   O60       1.35355      .   S
    Zr0    O60       1.35355  1_544   S
    Zr19   O61       1.28742      .   S
    Zr2    O61       1.28742      .   S
    Zr20   O62       1.27784      .   S
    Zr0    O62       1.27784  1_545   S
    Zr20   O63       1.43812      .   S
    Zr2    O63       1.43812  1_556   S
    Zr21   O64       1.29767      .   S
    Zr2    O64       1.29767  1_556   S
    Zr23   O65       1.28878  1_655   S
    Zr1    O65       1.28878      .   S
    Zr23   O66       1.35532      .   S
    Zr3    O66       1.35532      .   S
    Zr24   O67       1.27623  1_655   S
    Zr1    O67       1.27623      .   S
    Zr24   O68       1.43923      .   S
    Zr3    O68       1.43923      .   S
    Zr25   O69       1.29788      .   S
    Zr3    O69       1.29788      .   S
    Zr27   O70       1.28740      .   S
    Zr0    O70       1.28740      .   S
    Zr27   O71       1.35357      .   S
    Zr2    O71       1.35357  1_566   S
    N72    O73       1.10352      .   S
    Zr9    O73       1.83731      .   S
    N72    O74       1.09735      .   S
    Zr8    O74       1.82354      .   S
    N75    O76       1.09739      .   S
    Zr6    O76       1.82356      .   S
    N75    O77       1.10335      .   S
    Zr7    O77       1.83706      .   S
    N78    O79       1.10335      .   S
    Zr11   O79       1.83705      .   S
    N78    O80       1.09739      .   S
    Zr10   O80       1.82357      .   S
    N81    O82       1.09735      .   S
    Zr4    O82       1.82353      .   S
    N81    O83       1.10351      .   S
    Zr5    O83       1.83729      .   S
