# CIF file generated by openbabel 2.4.90, see http://openbabel.sf.net
data_I
_chemical_name_common ''
_cell_length_a 6.045
_cell_length_b 14.041
_cell_length_c 15.6335
_cell_angle_alpha 90.032
_cell_angle_beta 90.648
_cell_angle_gamma 90.003
_space_group_name_H-M_alt 'P 1'
_space_group_name_Hall 'P 1'
loop_
    _symmetry_equiv_pos_as_xyz
    x,y,z
loop_
    _atom_site_label
    _atom_site_type_symbol
    _atom_site_fract_x
    _atom_site_fract_y
    _atom_site_fract_z
    _atom_site_occupancy
    C0      C    0.26671   0.00845   0.06126   1.000
    C1      C    0.23340   0.50817   0.43857   1.000
    C2      C    0.73338   0.99153   0.93874   1.000
    C3      C    0.76667   0.49182   0.56143   1.000
    C4      C    0.84748   0.30082   0.67902   1.000
    C5      C    0.82311   0.18334   0.80893   1.000
    C6      C    0.65218   0.79923   0.82224   1.000
    C7      C    0.67685   0.68252   0.69164   1.000
    C8      C    0.15261   0.69916   0.32098   1.000
    C9      C    0.17698   0.81664   0.19107   1.000
    C10     C    0.34789   0.20076   0.17777   1.000
    C11     C    0.32322   0.31746   0.30836   1.000
    C12     C    0.22850   0.13250   0.89706   1.000
    C13     C    0.18024   0.19662   0.82467   1.000
    C14     C    0.97617   0.21478   0.78657   1.000
    C15     C    0.98964   0.27864   0.71737   1.000
    C16     C    0.20406   0.31014   0.70375   1.000
    C17     C    0.28764   0.37733   0.63836   1.000
    C18     C    0.27160   0.63238   0.60294   1.000
    C19     C    0.31978   0.69586   0.67585   1.000
    C20     C    0.52372   0.71379   0.71413   1.000
    C21     C    0.51015   0.77726   0.78369   1.000
    C22     C    0.29566   0.80861   0.79744   1.000
    C23     C    0.21206   0.87567   0.86298   1.000
    C24     C    0.77158   0.86749   0.10294   1.000
    C25     C    0.81984   0.80336   0.17533   1.000
    C26     C    0.02392   0.78521   0.21343   1.000
    C27     C    0.01043   0.72135   0.28263   1.000
    C28     C    0.79601   0.68984   0.29625   1.000
    C29     C    0.71244   0.62266   0.36165   1.000
    C30     C    0.72847   0.36761   0.39706   1.000
    C31     C    0.68028   0.30412   0.32415   1.000
    C32     C    0.47634   0.28619   0.28587   1.000
    C33     C    0.48992   0.22273   0.21631   1.000
    C34     C    0.70441   0.19138   0.20256   1.000
    C35     C    0.78801   0.12432   0.13702   1.000
    C36     C    0.38823   0.26015   0.77606   1.000
    C37     C    0.11159   0.75891   0.72488   1.000
    C38     C    0.61184   0.73984   0.22394   1.000
    C39     C    0.88848   0.24108   0.27513   1.000
    C40     C    0.42887   0.11604   0.91856   1.000
    C41     C    0.06421   0.09591   0.93688   1.000
    C42     C    0.49435   0.39472   0.63957   1.000
    C43     C    0.14736   0.41290   0.58524   1.000
    C44     C    0.07120   0.61606   0.58137   1.000
    C45     C    0.43582   0.59623   0.56274   1.000
    C46     C    0.00476   0.89166   0.86288   1.000
    C47     C    0.35297   0.91273   0.91503   1.000
    C48     C    0.57121   0.88395   0.08144   1.000
    C49     C    0.93585   0.90408   0.06312   1.000
    C50     C    0.50572   0.60527   0.36043   1.000
    C51     C    0.85271   0.58709   0.41476   1.000
    C52     C    0.92887   0.38393   0.41863   1.000
    C53     C    0.56424   0.40376   0.43726   1.000
    C54     C    0.99533   0.10833   0.13711   1.000
    C55     C    0.64711   0.08726   0.08497   1.000
    O56     O    0.10128   0.95627   0.06219   1.000
    O57     O    0.13102   0.05839   0.09919   1.000
    O58     O    0.85372   0.88579   0.08303   1.000
    O59     O    0.67139   0.87572   0.09219   1.000
    O60     O    0.71756   0.10579   0.11099   1.000
    O61     O    0.79571   0.83543   0.13914   1.000
    O62     O    0.89167   0.11633   0.13707   1.000
    O63     O    0.74621   0.15785   0.16979   1.000
    O64     O    0.92188   0.79429   0.19438   1.000
    O65     O    0.71584   0.77160   0.19964   1.000
    O66     O    0.41891   0.21174   0.19704   1.000
    O67     O    0.10045   0.80093   0.20225   1.000
    O68     O    0.59717   0.20705   0.20944   1.000
    O69     O    0.79644   0.21623   0.23885   1.000
    O70     O    0.01718   0.75328   0.24803   1.000
    O71     O    0.48313   0.25446   0.25109   1.000
    O72     O    0.70393   0.71484   0.26009   1.000
    O73     O    0.78438   0.27260   0.29964   1.000
    O74     O    0.90322   0.70560   0.28944   1.000
    O75     O    0.08152   0.71026   0.30181   1.000
    O76     O    0.39978   0.30183   0.29712   1.000
    O77     O    0.57831   0.29516   0.30501   1.000
    O78     O    0.75423   0.65625   0.32895   1.000
    O79     O    0.70437   0.33587   0.36061   1.000
    O80     O    0.60908   0.61396   0.36104   1.000
    O81     O    0.36956   0.55672   0.39950   1.000
    O82     O    0.78258   0.60487   0.38820   1.000
    O83     O    0.82867   0.37577   0.40785   1.000
    O84     O    0.64635   0.38569   0.41716   1.000
    O85     O    0.39882   0.45596   0.43792   1.000
    O86     O    0.60125   0.54403   0.56208   1.000
    O87     O    0.63051   0.44327   0.60050   1.000
    O88     O    0.35371   0.61430   0.58284   1.000
    O89     O    0.17140   0.62422   0.59215   1.000
    O90     O    0.21750   0.39511   0.61180   1.000
    O91     O    0.29569   0.66412   0.63939   1.000
    O92     O    0.39099   0.38603   0.63897   1.000
    O93     O    0.24585   0.34374   0.67105   1.000
    O94     O    0.42175   0.70483   0.69499   1.000
    O95     O    0.21569   0.72739   0.70036   1.000
    O96     O    0.91856   0.28973   0.69819   1.000
    O97     O    0.60029   0.69816   0.70289   1.000
    O98     O    0.09685   0.29439   0.71056   1.000
    O99     O    0.29615   0.28515   0.73991   1.000
    O100    O    0.51693   0.74553   0.74891   1.000
    O101    O    0.98291   0.24671   0.75197   1.000
    O102    O    0.20362   0.78376   0.76116   1.000
    O103    O    0.28423   0.22839   0.80037   1.000
    O104    O    0.40290   0.79293   0.79056   1.000
    O105    O    0.58116   0.78824   0.80296   1.000
    O106    O    0.89964   0.19906   0.79775   1.000
    O107    O    0.07820   0.20570   0.80562   1.000
    O108    O    0.25386   0.84214   0.83021   1.000
    O109    O    0.20437   0.16456   0.86087   1.000
    O110    O    0.10841   0.88366   0.86293   1.000
    O111    O    0.86907   0.94160   0.90081   1.000
    O112    O    0.28251   0.89420   0.88901   1.000
    O113    O    0.32868   0.12427   0.90781   1.000
    O114    O    0.14635   0.11420   0.91697   1.000
    O115    O    0.89879   0.04372   0.93781   1.000
    O116    O    0.34779   0.06225   0.98991   1.000
    O117    O    0.58112   0.05378   0.92865   1.000
    O118    O    0.16546   0.05218   0.99907   1.000
    O119    O    0.19038   0.46053   0.51191   1.000
    O120    O    0.95702   0.45236   0.57333   1.000
    O121    O    0.15230   0.56211   0.50997   1.000
    O122    O    0.91894   0.55394   0.57140   1.000
    O123    O    0.33461   0.55220   0.50066   1.000
    O124    O    0.30984   0.96059   0.98815   1.000
    O125    O    0.54317   0.95213   0.92689   1.000
    O126    O    0.41896   0.94620   0.07135   1.000
    O127    O    0.65229   0.93774   0.01009   1.000
    O128    O    0.83462   0.94781   0.00093   1.000
    O129    O    0.04306   0.54763   0.42667   1.000
    O130    O    0.80969   0.53946   0.48810   1.000
    O131    O    0.08114   0.44605   0.42860   1.000
    O132    O    0.84777   0.43788   0.49003   1.000
    O133    O    0.66546   0.44779   0.49934   1.000
    O134    O    0.45691   0.04786   0.07312   1.000
    O135    O    0.69024   0.03940   0.01186   1.000
loop_
    _geom_bond_atom_site_label_1
    _geom_bond_atom_site_label_2
    _geom_bond_distance
    _geom_bond_site_symmetry_2
    _ccdc_geom_bond_type
    C0     O56       1.23991  1_545   S
    C49    O56       1.23991  1_655   S
    C0     O57       1.23554      .   S
    C54    O57       1.23554  1_655   S
    C49    O58       0.64264      .   S
    C24    O58       0.64264      .   S
    C48    O59       0.63725      .   S
    C24    O59       0.63725      .   S
    C55    O60       0.64074      .   S
    C35    O60       0.64074      .   S
    C24    O61       0.73663      .   S
    C25    O61       0.73663      .   S
    C35    O62       0.63660      .   S
    C54    O62       0.63660      .   S
    C35    O63       0.74206      .   S
    C34    O63       0.74206      .   S
    C25    O64       0.69373      .   S
    C26    O64       0.69373  1_455   S
    C25    O65       0.86258      .   S
    C38    O65       0.86258      .   S
    C10    O66       0.54394      .   S
    C33    O66       0.54394      .   S
    C9     O67       0.54324      .   S
    C26    O67       0.54324      .   S
    C34    O68       0.69414      .   S
    C33    O68       0.69414      .   S
    C34    O69       0.86347      .   S
    C39    O69       0.86347      .   S
    C26    O70       0.70434      .   S
    C27    O70       0.70434      .   S
    C33    O71       0.70435      .   S
    C32    O71       0.70435      .   S
    C38    O72       0.86351      .   S
    C28    O72       0.86351      .   S
    C39    O73       0.86258      .   S
    C31    O73       0.86258      .   S
    C27    O74       0.69414  1_455   S
    C28    O74       0.69414      .   S
    C27    O75       0.54400      .   S
    C8     O75       0.54400      .   S
    C32    O76       0.54323      .   S
    C11    O76       0.54323      .   S
    C32    O77       0.69362      .   S
    C31    O77       0.69362      .   S
    C28    O78       0.74216      .   S
    C29    O78       0.74216      .   S
    C31    O79       0.73656      .   S
    C30    O79       0.73656      .   S
    C50    O80       0.63657      .   S
    C29    O80       0.63657      .   S
    C50    O81       1.23577      .   S
    C1     O81       1.23577      .   S
    C29    O82       0.64082      .   S
    C51    O82       0.64082      .   S
    C30    O83       0.63726      .   S
    C52    O83       0.63726      .   S
    C30    O84       0.64263      .   S
    C53    O84       0.64263      .   S
    C53    O85       1.23999      .   S
    C1     O85       1.23999      .   S
    C3     O86       1.24003      .   S
    C45    O86       1.24003      .   S
    C3     O87       1.23577      .   S
    C42    O87       1.23577      .   S
    C45    O88       0.64264      .   S
    C18    O88       0.64264      .   S
    C44    O89       0.63727      .   S
    C18    O89       0.63727      .   S
    C43    O90       0.64081      .   S
    C17    O90       0.64081      .   S
    C18    O91       0.73655      .   S
    C19    O91       0.73655      .   S
    C17    O92       0.63656      .   S
    C42    O92       0.63656      .   S
    C17    O93       0.74215      .   S
    C16    O93       0.74215      .   S
    C19    O94       0.69362      .   S
    C20    O94       0.69362      .   S
    C19    O95       0.86259      .   S
    C37    O95       0.86259      .   S
    C4     O96       0.54396      .   S
    C15    O96       0.54396      .   S
    C7     O97       0.54323      .   S
    C20    O97       0.54323      .   S
    C16    O98       0.69415      .   S
    C15    O98       0.69415  1_655   S
    C16    O99       0.86352      .   S
    C36    O99       0.86352      .   S
    C20    O100      0.70435      .   S
    C21    O100      0.70435      .   S
    C15    O101      0.70432      .   S
    C14    O101      0.70432      .   S
    C37    O102      0.86346      .   S
    C22    O102      0.86346      .   S
    C36    O103      0.86258      .   S
    C13    O103      0.86258      .   S
    C21    O104      0.69414      .   S
    C22    O104      0.69414      .   S
    C21    O105      0.54394      .   S
    C6     O105      0.54394      .   S
    C14    O106      0.54325      .   S
    C5     O106      0.54325      .   S
    C14    O107      0.69371  1_655   S
    C13    O107      0.69371      .   S
    C22    O108      0.74208      .   S
    C23    O108      0.74208      .   S
    C13    O109      0.73661      .   S
    C12    O109      0.73661      .   S
    C46    O110      0.63654      .   S
    C23    O110      0.63654      .   S
    C46    O111      1.23557  1_455   S
    C2     O111      1.23557      .   S
    C23    O112      0.64074      .   S
    C47    O112      0.64074      .   S
    C12    O113      0.63725      .   S
    C40    O113      0.63725      .   S
    C12    O114      0.64264      .   S
    C41    O114      0.64264      .   S
    C41    O115      1.23989  1_455   S
    C2     O115      1.23989  1_565   S
    C40    O116      1.43812      .   S
    C0     O116      1.43812  1_554   S
    C40    O117      1.27787      .   S
    C2     O117      1.27787  1_565   S
    C41    O118      1.29773      .   S
    C0     O118      1.29773  1_554   S
    C43    O119      1.35534      .   S
    C1     O119      1.35534      .   S
    C43    O120      1.28877  1_455   S
    C3     O120      1.28877      .   S
    C44    O121      1.43923      .   S
    C1     O121      1.43923      .   S
    C44    O122      1.27621  1_455   S
    C3     O122      1.27621      .   S
    C45    O123      1.29784      .   S
    C1     O123      1.29784      .   S
    C47    O124      1.35355      .   S
    C0     O124      1.35355  1_544   S
    C47    O125      1.28742      .   S
    C2     O125      1.28742      .   S
    C48    O126      1.27784      .   S
    C0     O126      1.27784  1_545   S
    C48    O127      1.43812      .   S
    C2     O127      1.43812  1_556   S
    C49    O128      1.29767      .   S
    C2     O128      1.29767  1_556   S
    C51    O129      1.28878  1_655   S
    C1     O129      1.28878      .   S
    C51    O130      1.35532      .   S
    C3     O130      1.35532      .   S
    C52    O131      1.27623  1_655   S
    C1     O131      1.27623      .   S
    C52    O132      1.43923      .   S
    C3     O132      1.43923      .   S
    C53    O133      1.29788      .   S
    C3     O133      1.29788      .   S
    C55    O134      1.28740      .   S
    C0     O134      1.28740      .   S
    C55    O135      1.35357      .   S
    C2     O135      1.35357  1_566   S
