# CIF file generated by openbabel 2.4.90, see http://openbabel.sf.net
data_I
_chemical_name_common ''
_cell_length_a 14.721
_cell_length_b 20.476
_cell_length_c 13.142
_cell_angle_alpha 89.99
_cell_angle_beta 89.928
_cell_angle_gamma 99.094
_space_group_name_H-M_alt 'P 1'
_space_group_name_Hall 'P 1'
loop_
    _symmetry_equiv_pos_as_xyz
    x,y,z
loop_
    _atom_site_label
    _atom_site_type_symbol
    _atom_site_fract_x
    _atom_site_fract_y
    _atom_site_fract_z
    _atom_site_occupancy
    P0      P    0.39367   0.04078   0.06651   1.000
    P1      P    0.39367   0.54080   0.06651   1.000
    P2      P    0.89366   0.04078   0.06651   1.000
    P3      P    0.89366   0.54080   0.06651   1.000
    P4      P    0.10637   0.20918   0.56529   1.000
    P5      P    0.10638   0.70919   0.56529   1.000
    P6      P    0.60636   0.20918   0.56529   1.000
    P7      P    0.60636   0.70919   0.56529   1.000
    P8      P    0.10632   0.45923   0.93348   1.000
    P9      P    0.10632   0.95924   0.93348   1.000
    P10     P    0.60630   0.45923   0.93348   1.000
    P11     P    0.60631   0.95924   0.93348   1.000
    P12     P    0.39361   0.29083   0.43470   1.000
    P13     P    0.39362   0.79084   0.43470   1.000
    P14     P    0.89360   0.29083   0.43470   1.000
    P15     P    0.89360   0.79084   0.43470   1.000
    H16     H    0.28596   0.10546   0.05815   1.000
    H17     H    0.28596   0.60547   0.05815   1.000
    H18     H    0.78594   0.10546   0.05815   1.000
    H19     H    0.78595   0.60547   0.05815   1.000
    H20     H    0.45989   0.99287   0.26680   1.000
    H21     H    0.45990   0.49288   0.26680   1.000
    H22     H    0.95988   0.99287   0.26680   1.000
    H23     H    0.95988   0.49288   0.26680   1.000
    H24     H    0.04442   0.04741   0.14252   1.000
    H25     H    0.04443   0.54742   0.14252   1.000
    H26     H    0.54441   0.04741   0.14252   1.000
    H27     H    0.54441   0.54742   0.14252   1.000
    H28     H    0.21407   0.14450   0.55645   1.000
    H29     H    0.21407   0.64451   0.55645   1.000
    H30     H    0.71405   0.14450   0.55645   1.000
    H31     H    0.71406   0.64451   0.55645   1.000
    H32     H    0.04026   0.25713   0.76619   1.000
    H33     H    0.04027   0.75714   0.76619   1.000
    H34     H    0.54025   0.25713   0.76619   1.000
    H35     H    0.54026   0.75714   0.76619   1.000
    H36     H    0.45585   0.20277   0.64213   1.000
    H37     H    0.45586   0.70278   0.64213   1.000
    H38     H    0.95584   0.20277   0.64213   1.000
    H39     H    0.95584   0.70278   0.64213   1.000
    H40     H    0.21403   0.39455   0.94184   1.000
    H41     H    0.21403   0.89456   0.94184   1.000
    H42     H    0.71402   0.39455   0.94184   1.000
    H43     H    0.71402   0.89456   0.94184   1.000
    H44     H    0.04009   0.50714   0.73317   1.000
    H45     H    0.04010   0.00000   0.73317   1.000
    H46     H    0.54008   0.50714   0.73317   1.000
    H47     H    0.54008   0.00000   0.73317   1.000
    H48     H    0.45556   0.45260   0.85747   1.000
    H49     H    0.45557   0.95261   0.85747   1.000
    H50     H    0.95555   0.45260   0.85747   1.000
    H51     H    0.95556   0.95261   0.85747   1.000
    H52     H    0.28592   0.35551   0.44354   1.000
    H53     H    0.28592   0.85552   0.44354   1.000
    H54     H    0.78591   0.35551   0.44354   1.000
    H55     H    0.78591   0.85552   0.44354   1.000
    H56     H    0.45972   0.24288   0.23380   1.000
    H57     H    0.45973   0.74290   0.23380   1.000
    H58     H    0.95971   0.24288   0.23380   1.000
    H59     H    0.95971   0.74290   0.23380   1.000
    H60     H    0.04413   0.29724   0.35780   1.000
    H61     H    0.04414   0.79726   0.35780   1.000
    H62     H    0.54412   0.29724   0.35785   1.000
    H63     H    0.54412   0.79726   0.35785   1.000
    C64     C    0.48199   0.06690   0.16664   1.000
    C65     C    0.48200   0.56691   0.16664   1.000
    C66     C    0.98198   0.06690   0.16664   1.000
    C67     C    0.98198   0.56691   0.16664   1.000
    C68     C    0.01821   0.18316   0.66603   1.000
    C69     C    0.01821   0.68317   0.66603   1.000
    C70     C    0.51819   0.18316   0.66603   1.000
    C71     C    0.51820   0.68317   0.66603   1.000
    O72     O    0.56620   0.92764   0.03220   1.000
    O73     O    0.12587   0.03441   0.92999   1.000
    O74     O    0.12587   0.53442   0.92999   1.000
    O75     O    0.62585   0.03441   0.92999   1.000
    C76     C    0.01799   0.43311   0.83335   1.000
    C77     C    0.01800   0.93312   0.83335   1.000
    C78     C    0.51798   0.43311   0.83335   1.000
    C79     C    0.51799   0.93312   0.83335   1.000
    C80     C    0.48178   0.31685   0.33396   1.000
    C81     C    0.48178   0.81687   0.33396   1.000
    C82     C    0.98176   0.31685   0.33396   1.000
    C83     C    0.98177   0.81687   0.33396   1.000
    O84     O    0.30511   0.06908   0.10181   1.000
    O85     O    0.30511   0.56909   0.10181   1.000
    O86     O    0.80510   0.06908   0.10181   1.000
    O87     O    0.80510   0.56909   0.10181   1.000
    O88     O    0.43378   0.07238   0.96779   1.000
    O89     O    0.43378   0.57239   0.96779   1.000
    O90     O    0.93376   0.07238   0.96779   1.000
    O91     O    0.93377   0.57239   0.96779   1.000
    O92     O    0.37412   0.46560   0.06999   1.000
    O93     O    0.37412   0.96562   0.06999   1.000
    O94     O    0.87411   0.46560   0.06999   1.000
    O95     O    0.87411   0.96562   0.06999   1.000
    O96     O    0.45331   0.04189   0.26498   1.000
    O97     O    0.45331   0.54190   0.26498   1.000
    O98     O    0.95330   0.04189   0.26498   1.000
    O99     O    0.95330   0.54190   0.26498   1.000
    O100    O    0.19503   0.18097   0.60008   1.000
    O101    O    0.19503   0.68098   0.60008   1.000
    O102    O    0.69501   0.18097   0.60008   1.000
    O103    O    0.69502   0.68098   0.60008   1.000
    O104    O    0.06622   0.17758   0.46671   1.000
    O105    O    0.06622   0.67760   0.46671   1.000
    O106    O    0.56620   0.17758   0.46671   1.000
    O107    O    0.56621   0.67760   0.46671   1.000
    O108    O    0.12579   0.28437   0.56855   1.000
    O109    O    0.12579   0.78438   0.56855   1.000
    O110    O    0.62577   0.28437   0.56855   1.000
    O111    O    0.62578   0.78438   0.56855   1.000
    O112    O    0.04699   0.20814   0.76432   1.000
    O113    O    0.04699   0.70815   0.76432   1.000
    O114    O    0.54698   0.20814   0.76432   1.000
    O115    O    0.54698   0.70815   0.76432   1.000
    O116    O    0.19488   0.43093   0.89818   1.000
    O117    O    0.19488   0.93094   0.89818   1.000
    O118    O    0.69486   0.43093   0.89818   1.000
    O119    O    0.69487   0.93094   0.89818   1.000
    O120    O    0.06621   0.42763   0.03220   1.000
    O121    O    0.06621   0.92764   0.03220   1.000
    O122    O    0.56620   0.42763   0.03220   1.000
    O123    O    0.62586   0.53442   0.92999   1.000
    O124    O    0.04668   0.45812   0.73500   1.000
    O125    O    0.04668   0.95813   0.73500   1.000
    O126    O    0.54666   0.45812   0.73500   1.000
    O127    O    0.54667   0.95813   0.73500   1.000
    O128    O    0.30496   0.31904   0.39991   1.000
    O129    O    0.30496   0.81906   0.39991   1.000
    O130    O    0.80495   0.31904   0.39991   1.000
    O131    O    0.80495   0.81906   0.39991   1.000
    O132    O    0.43377   0.32243   0.53328   1.000
    O133    O    0.43377   0.82244   0.53328   1.000
    O134    O    0.93376   0.32243   0.53328   1.000
    O135    O    0.93376   0.82244   0.53328   1.000
    O136    O    0.37420   0.21564   0.43144   1.000
    O137    O    0.37420   0.71565   0.43144   1.000
    O138    O    0.87419   0.21564   0.43144   1.000
    O139    O    0.87419   0.71565   0.43144   1.000
    O140    O    0.45299   0.29187   0.23567   1.000
    O141    O    0.45300   0.79188   0.23567   1.000
    O142    O    0.95298   0.29187   0.23567   1.000
    O143    O    0.95299   0.79188   0.23567   1.000
loop_
    _geom_bond_atom_site_label_1
    _geom_bond_atom_site_label_2
    _geom_bond_distance
    _geom_bond_site_symmetry_2
    _ccdc_geom_bond_type
    O72    P11       1.52556  1_554   S
    O122   P10       1.52557  1_554   S
    O121   P9        1.52556  1_554   S
    O120   P8        1.52556  1_554   S
    H19    O87       1.01502      .   S
    H18    O86       1.01502      .   S
    H17    O85       1.01502      .   S
    H16    O84       1.01500      .   S
    P3     O94       1.52158      .   S
    P3     O87       1.57734      .   S
    P3     C67       1.86892      .   S
    P3     O91       1.52555  1_554   S
    P2     O95       1.52109  1_545   S
    P2     O86       1.57735      .   S
    P2     C66       1.86892      .   S
    P2     O90       1.52555  1_554   S
    P1     O92       1.52158      .   S
    P1     O85       1.57735      .   S
    P1     C65       1.86892      .   S
    P1     O89       1.52556  1_554   S
    P0     O93       1.52109  1_545   S
    P0     O84       1.57736      .   S
    P0     C64       1.86892      .   S
    P0     O88       1.52555  1_554   S
    H24    C66       1.10457  1_455   S
    H25    C67       1.10457  1_455   S
    H26    C64       1.10423      .   S
    H27    C65       1.10425      .   S
    C67    O99       1.42858      .   S
    C66    O98       1.42859      .   S
    C65    O97       1.42858      .   S
    C64    O96       1.42858      .   S
    H59    O143      1.02369      .   S
    H58    O142      1.02369      .   S
    H57    O141      1.02367      .   S
    H56    O140      1.02369      .   S
    O143   C83       1.42929      .   S
    O140   C80       1.42930      .   S
    O141   C81       1.42930      .   S
    O142   C82       1.42929      .   S
    O96    H20       1.02388  1_545   S
    O97    H21       1.02388      .   S
    O98    H22       1.02387  1_545   S
    O99    H23       1.02389      .   S
    C81    H63       1.10419      .   S
    C81    P13       1.87029      .   S
    C82    H60       1.10432  1_655   S
    C82    P14       1.87029      .   S
    C83    H61       1.10433  1_655   S
    C83    P15       1.87028      .   S
    C80    H62       1.10419      .   S
    C80    P12       1.87029      .   S
    O128   P12       1.57663      .   S
    O128   H52       1.01527      .   S
    O129   P13       1.57663      .   S
    O129   H53       1.01527      .   S
    O130   P14       1.57663      .   S
    O130   H54       1.01527      .   S
    O131   P15       1.57663      .   S
    O131   H55       1.01527      .   S
    O138   P14       1.52143      .   S
    O137   P13       1.52143      .   S
    O136   P12       1.52143      .   S
    O139   P15       1.52143      .   S
    P15    O135      1.52569      .   S
    P14    O134      1.52569      .   S
    P13    O133      1.52569      .   S
    P12    O132      1.52569      .   S
    O107   P7        1.52569      .   S
    O104   P4        1.52569      .   S
    O105   P5        1.52569      .   S
    O106   P6        1.52569      .   S
    H31    O103      1.01527      .   S
    H30    O102      1.01527      .   S
    H29    O101      1.01527      .   S
    H28    O100      1.01527      .   S
    P7     O111      1.52141      .   S
    P7     O103      1.57663      .   S
    P7     C71       1.87029      .   S
    P6     O110      1.52141      .   S
    P6     O102      1.57662      .   S
    P6     C70       1.87030      .   S
    P5     O109      1.52143      .   S
    P5     O101      1.57663      .   S
    P5     C69       1.87029      .   S
    P4     O108      1.52141      .   S
    P4     O100      1.57662      .   S
    P4     C68       1.87029      .   S
    H39    C69       1.10455  1_655   S
    H36    C70       1.10422      .   S
    H37    C71       1.10423      .   S
    H38    C68       1.10456  1_655   S
    C71    O115      1.42930      .   S
    C70    O114      1.42929      .   S
    C69    O113      1.42929      .   S
    C68    O112      1.42929      .   S
    H44    O124      1.02389      .   S
    H45    O125      0.87820  1_545   S
    H46    O126      1.02388      .   S
    H47    O127      0.87819  1_545   S
    O124   C76       1.42870      .   S
    O125   C77       1.42870      .   S
    O126   C78       1.42871      .   S
    O127   C79       1.42870      .   S
    O113   H33       1.02369      .   S
    O112   H32       1.02369      .   S
    O114   H34       1.02369      .   S
    O115   H35       1.02367      .   S
    C78    H48       1.10423      .   S
    C78    P10       1.86893      .   S
    C79    H49       1.10423      .   S
    C79    P11       1.86892      .   S
    C76    H50       1.10457  1_455   S
    C76    P8        1.86892      .   S
    C77    H51       1.10457  1_455   S
    C77    P9        1.86892      .   S
    O116   P8        1.57735      .   S
    O116   H40       1.01502      .   S
    O117   P9        1.57735      .   S
    O117   H41       1.01502      .   S
    O118   P10       1.57735      .   S
    O118   H42       1.01502      .   S
    O119   P11       1.57736      .   S
    O119   H43       1.01502      .   S
    O74    P8        1.52158      .   S
    O75    P11       1.52108  1_545   S
    O123   P10       1.52156      .   S
    O73    P9        1.52110  1_545   S
