# CIF file generated by openbabel 2.4.90, see http://openbabel.sf.net
data_I
_chemical_name_common ''
_cell_length_a 14.721
_cell_length_b 20.476
_cell_length_c 13.142
_cell_angle_alpha 89.99
_cell_angle_beta 89.928
_cell_angle_gamma 99.094
_space_group_name_H-M_alt 'P 1'
_space_group_name_Hall 'P 1'
loop_
    _symmetry_equiv_pos_as_xyz
    x,y,z
loop_
    _atom_site_label
    _atom_site_type_symbol
    _atom_site_fract_x
    _atom_site_fract_y
    _atom_site_fract_z
    _atom_site_occupancy
    La0     La   0.07668   0.63886   0.91782   1.000
    La1     La   0.57667   0.13885   0.91782   1.000
    La2     La   0.57667   0.63886   0.91782   1.000
    La3     La   0.42311   0.11119   0.41780   1.000
    La4     La   0.42311   0.61120   0.41788   1.000
    La5     La   0.92310   0.11119   0.41780   1.000
    La6     La   0.92310   0.61120   0.41780   1.000
    La7     La   0.42331   0.36116   0.08217   1.000
    La8     La   0.42331   0.86117   0.08217   1.000
    La9     La   0.92329   0.36116   0.08217   1.000
    La10    La   0.92330   0.86117   0.08217   1.000
    La11    La   0.07688   0.38882   0.58211   1.000
    La12    La   0.07688   0.88883   0.58211   1.000
    La13    La   0.57686   0.38882   0.58211   1.000
    La14    La   0.57687   0.88884   0.58211   1.000
    La15    La   0.07668   0.13885   0.91782   1.000
    C16     C    0.50191   0.14171   0.16980   1.000
    C17     C    0.50191   0.64173   0.16980   1.000
    C18     C    0.00000   0.14171   0.16980   1.000
    C19     C    0.00000   0.64173   0.16980   1.000
    C20     C    0.22349   0.27772   0.98170   1.000
    C21     C    0.22349   0.77773   0.98170   1.000
    C22     C    0.72347   0.27772   0.98170   1.000
    C23     C    0.72348   0.77773   0.98170   1.000
    C24     C    0.99800   0.10837   0.66945   1.000
    C25     C    0.99800   0.60838   0.66945   1.000
    C26     C    0.49798   0.10837   0.66945   1.000
    C27     C    0.49799   0.60839   0.66945   1.000
    C28     C    0.27655   0.47230   0.48181   1.000
    C29     C    0.27656   0.97231   0.48181   1.000
    C30     C    0.77654   0.47230   0.48181   1.000
    C31     C    0.77655   0.97231   0.48181   1.000
    C32     C    0.99807   0.35830   0.83019   1.000
    C33     C    0.99808   0.85831   0.83019   1.000
    C34     C    0.49806   0.35830   0.83019   1.000
    C35     C    0.49807   0.85831   0.83019   1.000
    C36     C    0.27650   0.22229   0.01826   1.000
    C37     C    0.27650   0.72231   0.01826   1.000
    C38     C    0.77649   0.22229   0.01826   1.000
    C39     C    0.77649   0.72231   0.01826   1.000
    C40     C    0.50199   0.39164   0.33054   1.000
    C41     C    0.50200   0.89165   0.33054   1.000
    C42     C    0.00000   0.39164   0.33054   1.000
    C43     C    0.00000   0.89165   0.33054   1.000
    C44     C    0.22343   0.02771   0.51818   1.000
    C45     C    0.22344   0.52772   0.51818   1.000
    C46     C    0.72342   0.02771   0.51818   1.000
    C47     C    0.72342   0.52772   0.51818   1.000
    O48     O    0.04214   0.17261   0.09518   1.000
    O49     O    0.04214   0.67262   0.09518   1.000
    O50     O    0.54213   0.17261   0.09518   1.000
    O51     O    0.54213   0.67262   0.09518   1.000
    O52     O    0.47292   0.16925   0.24853   1.000
    O53     O    0.47293   0.66927   0.24853   1.000
    O54     O    0.97291   0.16925   0.24853   1.000
    O55     O    0.97291   0.66927   0.24853   1.000
    O56     O    0.14814   0.26087   0.93697   1.000
    O57     O    0.14814   0.76089   0.93697   1.000
    O58     O    0.64813   0.26087   0.93697   1.000
    O59     O    0.64813   0.76089   0.93697   1.000
    O60     O    0.26173   0.33712   0.00000   1.000
    O61     O    0.26173   0.83714   0.00000   1.000
    O62     O    0.76172   0.33712   0.00000   1.000
    O63     O    0.76172   0.83714   0.00000   1.000
    O64     O    0.45734   0.07749   0.59518   1.000
    O65     O    0.45734   0.57751   0.59518   1.000
    O66     O    0.95732   0.07749   0.59518   1.000
    O67     O    0.95733   0.57750   0.59518   1.000
    O68     O    0.02705   0.08080   0.74800   1.000
    O69     O    0.02705   0.58081   0.74800   1.000
    O70     O    0.52703   0.08080   0.74800   1.000
    O71     O    0.52704   0.58081   0.74800   1.000
    O72     O    0.35145   0.48901   0.43591   1.000
    O73     O    0.35146   0.98902   0.43591   1.000
    O74     O    0.85144   0.48901   0.43591   1.000
    O75     O    0.85144   0.98902   0.43591   1.000
    O76     O    0.23870   0.41296   0.50195   1.000
    O77     O    0.23871   0.91297   0.50195   1.000
    O78     O    0.73869   0.41296   0.50195   1.000
    O79     O    0.73870   0.91297   0.50195   1.000
    O80     O    0.45784   0.32740   0.90480   1.000
    O81     O    0.45785   0.82742   0.90480   1.000
    O82     O    0.95783   0.32740   0.90480   1.000
    O83     O    0.95784   0.82742   0.90480   1.000
    O84     O    0.02706   0.33076   0.75146   1.000
    O85     O    0.02707   0.83077   0.75146   1.000
    O86     O    0.52705   0.33076   0.75146   1.000
    O87     O    0.52706   0.83077   0.75146   1.000
    O88     O    0.35185   0.23914   0.06302   1.000
    O89     O    0.35185   0.73915   0.06302   1.000
    O90     O    0.85183   0.23914   0.06302   1.000
    O91     O    0.85184   0.73915   0.06302   1.000
    O92     O    0.23826   0.16289   0.99947   1.000
    O93     O    0.23826   0.66290   0.99947   1.000
    O94     O    0.73824   0.16289   0.99947   1.000
    O95     O    0.73825   0.66290   0.99947   1.000
    O96     O    0.04265   0.42252   0.40481   1.000
    O97     O    0.04265   0.92253   0.40481   1.000
    O98     O    0.54264   0.42252   0.40481   1.000
    O99     O    0.54264   0.92253   0.40480   1.000
    O100    O    0.47294   0.41921   0.25190   1.000
    O101    O    0.47295   0.91923   0.25190   1.000
    O102    O    0.97293   0.41922   0.25199   1.000
    O103    O    0.97293   0.91923   0.25199   1.000
    O104    O    0.14853   0.01100   0.56408   1.000
    O105    O    0.14854   0.51101   0.56408   1.000
    O106    O    0.64852   0.01100   0.56408   1.000
    O107    O    0.64853   0.51101   0.56408   1.000
    O108    O    0.26128   0.08705   0.49804   1.000
    O109    O    0.26129   0.58706   0.49804   1.000
    O110    O    0.76127   0.08705   0.49804   1.000
    O111    O    0.76127   0.58706   0.49804   1.000
loop_
    _geom_bond_atom_site_label_1
    _geom_bond_atom_site_label_2
    _geom_bond_distance
    _geom_bond_site_symmetry_2
    _ccdc_geom_bond_type
    O60    La7       2.58893      .   S
    O60    C20       1.28003  1_554   S
    O61    La8       2.58893      .   S
    O61    C21       1.28003  1_554   S
    O62    La9       2.58892      .   S
    O62    C22       1.28004  1_554   S
    O63    La10      2.58893      .   S
    O63    C23       1.28004  1_554   S
    C39    O91       1.25539      .   S
    C39    O95       1.28126  1_554   S
    C36    O88       1.25538      .   S
    C36    O92       1.28126  1_554   S
    C37    O89       1.25539      .   S
    C37    O93       1.28126  1_554   S
    C38    O90       1.25539      .   S
    C38    O94       1.28125  1_554   S
    O90    La9       2.56570      .   S
    O89    La8       2.56570      .   S
    O88    La7       2.56570      .   S
    O91    La10      2.56570      .   S
    La10   O103      2.58035      .   S
    La10   O83       2.50569  1_554   S
    La9    O102      2.58035      .   S
    La9    O82       2.50570  1_554   S
    La8    O101      2.57933      .   S
    La8    O81       2.50569  1_554   S
    La7    O100      2.57933      .   S
    La7    O80       2.50569  1_554   S
    O48    C18       1.27313      .   S
    O48    La15      2.50558  1_554   S
    O51    C17       1.26185      .   S
    O51    La2       2.50558  1_554   S
    O49    C19       1.27315      .   S
    O49    La0       2.50558  1_554   S
    O50    C16       1.26185      .   S
    O50    La1       2.50558  1_554   S
    C18    O54       1.27194  1_455   S
    C19    O55       1.27191  1_455   S
    C17    O53       1.28290      .   S
    C16    O52       1.28289      .   S
    O55    La6       2.57281      .   S
    O54    La5       2.57282      .   S
    O53    La4       2.57372      .   S
    O52    La3       2.57282      .   S
    O101   C41       1.28337      .   S
    O100   C40       1.28337      .   S
    O103   C43       1.27092  1_655   S
    O102   C42       1.27095  1_655   S
    C42    O96       1.27394      .   S
    C40    O98       1.26198      .   S
    C41    O99       1.26187      .   S
    C43    O97       1.27396      .   S
    O99    La14      2.50440      .   S
    O98    La13      2.50428      .   S
    O97    La12      2.50429      .   S
    O96    La11      2.50429      .   S
    La3    O73       2.56737  1_545   S
    La3    O108      2.57930      .   S
    La3    O64       2.50525      .   S
    La5    O75       2.56738  1_545   S
    La5    O110      2.57930      .   S
    La5    O66       2.50526      .   S
    La6    O74       2.56787      .   S
    La6    O111      2.57929      .   S
    La6    O67       2.50527      .   S
    La4    O72       2.56776      .   S
    La4    O109      2.57887      .   S
    La4    O65       2.50427      .   S
    O75    C31       1.25525      .   S
    O74    C30       1.25526      .   S
    O73    C29       1.25527      .   S
    O72    C28       1.25525      .   S
    C31    O79       1.28154      .   S
    C30    O78       1.28154      .   S
    C29    O77       1.28153      .   S
    C28    O76       1.28154      .   S
    O111   C47       1.28154      .   S
    O108   C44       1.28154      .   S
    O109   C45       1.28154      .   S
    O110   C46       1.28154      .   S
    O76    La11      2.57886      .   S
    O77    La12      2.57889      .   S
    O78    La13      2.57886      .   S
    O79    La14      2.57886      .   S
    C46    O106      1.25525      .   S
    C47    O107      1.25526      .   S
    C45    O105      1.25525      .   S
    C44    O104      1.25527      .   S
    O104   La12      2.56729  1_545   S
    O107   La13      2.56777      .   S
    O106   La14      2.56728  1_545   S
    O105   La11      2.56778      .   S
    La14   O87       2.57373      .   S
    La13   O86       2.57372      .   S
    La12   O85       2.57372      .   S
    La11   O84       2.57372      .   S
    O67    C25       1.26213      .   S
    O66    C24       1.26213      .   S
    O65    C27       1.26198      .   S
    O64    C26       1.26198      .   S
    C27    O71       1.28244      .   S
    C26    O70       1.28243      .   S
    C25    O69       1.28243  1_655   S
    C24    O68       1.28243  1_655   S
    O71    La2       2.58035      .   S
    O70    La1       2.58036      .   S
    O69    La0       2.58035      .   S
    O68    La15      2.58035      .   S
    O84    C32       1.28289  1_455   S
    O85    C33       1.28289  1_455   S
    O86    C34       1.28290      .   S
    O87    C35       1.28290      .   S
    C32    O82       1.26189      .   S
    C33    O83       1.26189      .   S
    C34    O80       1.26176      .   S
    C35    O81       1.26174      .   S
    La15   O56       2.56569      .   S
    La15   O92       2.58607      .   S
    La0    O57       2.56570      .   S
    La0    O93       2.58607      .   S
    La1    O58       2.56571      .   S
    La1    O94       2.58607      .   S
    La2    O59       2.56572      .   S
    La2    O95       2.58607      .   S
    O56    C20       1.25520      .   S
    O57    C21       1.25519      .   S
    O58    C22       1.25520      .   S
    O59    C23       1.25519      .   S
