# CIF file generated by openbabel 2.4.90, see http://openbabel.sf.net
data_I
_chemical_name_common ''
_cell_length_a 14.721
_cell_length_b 20.476
_cell_length_c 13.142
_cell_angle_alpha 89.99
_cell_angle_beta 89.928
_cell_angle_gamma 99.094
_space_group_name_H-M_alt 'P 1'
_space_group_name_Hall 'P 1'
loop_
    _symmetry_equiv_pos_as_xyz
    x,y,z
loop_
    _atom_site_label
    _atom_site_type_symbol
    _atom_site_fract_x
    _atom_site_fract_y
    _atom_site_fract_z
    _atom_site_occupancy
    C0      C    0.50191   0.14171   0.16980   1.000
    C1      C    0.50191   0.64173   0.16980   1.000
    C2      C    0.00000   0.14171   0.16980   1.000
    C3      C    0.00000   0.64173   0.16980   1.000
    C4      C    0.22349   0.27772   0.98170   1.000
    C5      C    0.22349   0.77773   0.98170   1.000
    C6      C    0.72347   0.27772   0.98170   1.000
    C7      C    0.72348   0.77773   0.98170   1.000
    C8      C    0.99800   0.10837   0.66945   1.000
    C9      C    0.99800   0.60838   0.66945   1.000
    C10     C    0.49798   0.10837   0.66945   1.000
    C11     C    0.49799   0.60839   0.66945   1.000
    C12     C    0.27655   0.47230   0.48181   1.000
    C13     C    0.27656   0.97231   0.48181   1.000
    C14     C    0.77654   0.47230   0.48181   1.000
    C15     C    0.77655   0.97231   0.48181   1.000
    C16     C    0.99807   0.35830   0.83019   1.000
    C17     C    0.99808   0.85831   0.83019   1.000
    C18     C    0.49806   0.35830   0.83019   1.000
    C19     C    0.49807   0.85831   0.83019   1.000
    C20     C    0.27650   0.22229   0.01826   1.000
    C21     C    0.27650   0.72231   0.01826   1.000
    C22     C    0.77649   0.22229   0.01826   1.000
    C23     C    0.77649   0.72231   0.01826   1.000
    C24     C    0.50199   0.39164   0.33054   1.000
    C25     C    0.50200   0.89165   0.33054   1.000
    C26     C    0.00000   0.39164   0.33054   1.000
    C27     C    0.00000   0.89165   0.33054   1.000
    C28     C    0.22343   0.02771   0.51818   1.000
    C29     C    0.22344   0.52772   0.51818   1.000
    C30     C    0.72342   0.02771   0.51818   1.000
    C31     C    0.72342   0.52772   0.51818   1.000
loop_
    _geom_bond_atom_site_label_1
    _geom_bond_atom_site_label_2
    _geom_bond_distance
    _geom_bond_site_symmetry_2
    _ccdc_geom_bond_type
    C23    C7        1.55190  1_554   S
    C20    C4        1.55191  1_554   S
    C21    C5        1.55191  1_554   S
    C22    C6        1.55189  1_554   S
    C15    C30       1.55132  1_565   S
    C14    C31       1.55163      .   S
    C13    C28       1.55131  1_565   S
    C12    C29       1.55164      .   S
