# CIF file generated by openbabel 2.4.90, see http://openbabel.sf.net
data_I
_chemical_name_common ''
_cell_length_a 14.721
_cell_length_b 20.476
_cell_length_c 13.142
_cell_angle_alpha 89.99
_cell_angle_beta 89.928
_cell_angle_gamma 99.094
_space_group_name_H-M_alt 'P 1'
_space_group_name_Hall 'P 1'
loop_
    _symmetry_equiv_pos_as_xyz
    x,y,z
loop_
    _atom_site_label
    _atom_site_type_symbol
    _atom_site_fract_x
    _atom_site_fract_y
    _atom_site_fract_z
    _atom_site_occupancy
    Zr0     Zr   0.07668   0.13885   0.91782   1.000
    Zr1     Zr   0.07668   0.63886   0.91782   1.000
    Zr2     Zr   0.57667   0.13885   0.91782   1.000
    Zr3     Zr   0.57667   0.63886   0.91782   1.000
    Zr4     Zr   0.42311   0.11119   0.41780   1.000
    Zr5     Zr   0.42311   0.61120   0.41788   1.000
    Zr6     Zr   0.92310   0.11119   0.41780   1.000
    Zr7     Zr   0.92310   0.61120   0.41780   1.000
    Zr8     Zr   0.42331   0.36116   0.08217   1.000
    Zr9     Zr   0.42331   0.86117   0.08217   1.000
    Zr10    Zr   0.92329   0.36116   0.08217   1.000
    Zr11    Zr   0.92330   0.86117   0.08217   1.000
    Zr12    Zr   0.07688   0.38882   0.58211   1.000
    Zr13    Zr   0.07688   0.88883   0.58211   1.000
    Zr14    Zr   0.57686   0.38882   0.58211   1.000
    Zr15    Zr   0.57687   0.88884   0.58211   1.000
    N16     N    0.58528   0.45530   0.87719   1.000
    O17     O    0.54002   0.42485   0.96719   1.000
    O18     O    0.57352   0.43939   0.76787   1.000
    O19     O    0.59327   0.52097   0.90055   1.000
    N20     N    0.41457   0.79471   0.37824   1.000
    O21     O    0.40661   0.72907   0.40145   1.000
    O22     O    0.42636   0.81062   0.26858   1.000
    O23     O    0.45994   0.82517   0.46797   1.000
    N24     N    0.58528   0.95452   0.87719   1.000
    O25     O    0.54002   0.92446   0.96719   1.000
    O26     O    0.59327   0.02057   0.90055   1.000
    O27     O    0.57353   0.93900   0.76787   1.000
    N28     N    0.91455   0.29470   0.37823   1.000
    O29     O    0.92634   0.31061   0.26858   1.000
    O30     O    0.95993   0.32516   0.46796   1.000
    O31     O    0.90660   0.22906   0.40143   1.000
    N32     N    0.91456   0.79471   0.37823   1.000
    O33     O    0.92635   0.81062   0.26858   1.000
    O34     O    0.95994   0.82517   0.46796   1.000
    O35     O    0.90660   0.72907   0.40143   1.000
    N36     N    0.41456   0.29470   0.37824   1.000
    O37     O    0.42636   0.31061   0.26858   1.000
    O38     O    0.40661   0.22906   0.40143   1.000
    O39     O    0.45994   0.32516   0.46797   1.000
    N40     N    0.41469   0.04471   0.12280   1.000
    O41     O    0.40671   0.97905   0.09944   1.000
    O42     O    0.42645   0.06063   0.23209   1.000
    O43     O    0.45996   0.07516   0.03280   1.000
    N44     N    0.08542   0.70532   0.62175   1.000
    O45     O    0.07363   0.68941   0.73141   1.000
    O46     O    0.09338   0.77096   0.59854   1.000
    O47     O    0.04004   0.67486   0.53200   1.000
    N48     N    0.58541   0.20531   0.62175   1.000
    O49     O    0.59336   0.27095   0.59854   1.000
    O50     O    0.57362   0.18940   0.73141   1.000
    O51     O    0.54003   0.17485   0.53200   1.000
    N52     N    0.08542   0.20531   0.62175   1.000
    O53     O    0.07363   0.18940   0.73141   1.000
    O54     O    0.04004   0.17485   0.53200   1.000
    O55     O    0.09338   0.27095   0.59854   1.000
    N56     N    0.58541   0.70532   0.62175   1.000
    O57     O    0.59337   0.77096   0.59854   1.000
    O58     O    0.54004   0.67486   0.53202   1.000
    O59     O    0.57362   0.68941   0.73141   1.000
    N60     N    0.91468   0.04471   0.12280   1.000
    O61     O    0.90669   0.97905   0.09944   1.000
    O62     O    0.92644   0.06063   0.23209   1.000
    O63     O    0.95995   0.07516   0.03280   1.000
    N64     N    0.91469   0.54472   0.12280   1.000
    O65     O    0.90669   0.47905   0.09944   1.000
    O66     O    0.92644   0.56064   0.23209   1.000
    O67     O    0.95996   0.57517   0.03280   1.000
    N68     N    0.41470   0.54472   0.12280   1.000
    O69     O    0.40671   0.47905   0.09944   1.000
    O70     O    0.42646   0.56064   0.23211   1.000
    O71     O    0.45996   0.57517   0.03280   1.000
    N72     N    0.08529   0.95452   0.87719   1.000
    O73     O    0.07354   0.93900   0.76787   1.000
    O74     O    0.04002   0.92446   0.96719   1.000
    O75     O    0.09328   0.02057   0.90055   1.000
    N76     N    0.08529   0.45530   0.87719   1.000
    O77     O    0.07353   0.43939   0.76787   1.000
    O78     O    0.04002   0.42485   0.96719   1.000
    O79     O    0.09328   0.52097   0.90055   1.000
    C80     C    0.74998   0.25001   0.99998   1.000
    C81     C    0.24999   0.25000   0.99998   1.000
    C82     C    0.74998   0.75002   0.99998   1.000
    C83     C    0.25000   0.75002   0.99998   1.000
    C84     C    0.74998   0.50001   0.49999   1.000
    C85     C    0.24999   0.00001   0.49999   1.000
    C86     C    0.74998   0.00001   0.49999   1.000
    C87     C    0.24999   0.50001   0.49999   1.000
    C88     C    0.00502   0.66120   0.17117   1.000
    O89     O    0.97893   0.61786   0.15834   1.000
    O90     O    0.03222   0.65847   0.08883   1.000
    O91     O    0.97651   0.65072   0.25217   1.000
    C92     C    0.28887   0.70812   0.02692   1.000
    O93     O    0.22317   0.67950   0.99278   1.000
    O94     O    0.27606   0.72214   0.01802   1.000
    O95     O    0.33823   0.75414   0.04976   1.000
    C96     C    0.71107   0.54193   0.52677   1.000
    O97     O    0.72389   0.52790   0.51793   1.000
    O98     O    0.77663   0.57053   0.49234   1.000
    O99     O    0.66189   0.49592   0.54993   1.000
    C100    C    0.28887   0.20811   0.02692   1.000
    O101    O    0.27606   0.22213   0.01802   1.000
    O102    O    0.22317   0.17949   0.99278   1.000
    O103    O    0.33822   0.25413   0.04976   1.000
    C104    C    0.49432   0.83883   0.82882   1.000
    O105    O    0.52049   0.88197   0.84165   1.000
    O106    O    0.52314   0.84932   0.74780   1.000
    O107    O    0.46745   0.84156   0.91115   1.000
    C108    C    0.99413   0.58890   0.67088   1.000
    O109    O    0.02045   0.63222   0.65781   1.000
    O110    O    0.96717   0.59163   0.58868   1.000
    O111    O    0.02300   0.59937   0.75189   1.000
    C112    C    0.21112   0.29190   0.97289   1.000
    O113    O    0.22393   0.27788   0.98186   1.000
    O114    O    0.27682   0.32052   0.00699   1.000
    O115    O    0.16176   0.24588   0.95014   1.000
    C116    C    0.99412   0.08889   0.67088   1.000
    O117    O    0.02044   0.13221   0.65781   1.000
    O118    O    0.96717   0.09161   0.58868   1.000
    O119    O    0.02299   0.09936   0.75189   1.000
    C120    C    0.21112   0.79192   0.97289   1.000
    O121    O    0.22393   0.77789   0.98186   1.000
    O122    O    0.27682   0.82054   0.00699   1.000
    O123    O    0.16177   0.74590   0.95014   1.000
    C124    C    0.78889   0.45809   0.47322   1.000
    O125    O    0.83808   0.50410   0.45004   1.000
    O126    O    0.77608   0.47212   0.48206   1.000
    O127    O    0.72333   0.42949   0.50763   1.000
    C128    C    0.78889   0.95810   0.47322   1.000
    O129    O    0.83808   0.00410   0.45004   1.000
    O130    O    0.77608   0.97213   0.48206   1.000
    O131    O    0.72334   0.92950   0.50763   1.000
    C132    C    0.71107   0.04192   0.52677   1.000
    O133    O    0.77663   0.07052   0.49234   1.000
    O134    O    0.66188   0.99592   0.54993   1.000
    O135    O    0.72389   0.02789   0.51793   1.000
    C136    C    0.49432   0.33882   0.82882   1.000
    O137    O    0.52314   0.34930   0.74780   1.000
    O138    O    0.52049   0.38216   0.84165   1.000
    O139    O    0.46745   0.34155   0.91115   1.000
    C140    C    0.50586   0.41112   0.32908   1.000
    O141    O    0.53280   0.40840   0.41127   1.000
    O142    O    0.47954   0.36780   0.34216   1.000
    O143    O    0.47699   0.40065   0.24806   1.000
    C144    C    0.00502   0.16119   0.17117   1.000
    O145    O    0.97893   0.11785   0.15834   1.000
    O146    O    0.97651   0.15071   0.25217   1.000
    O147    O    0.03221   0.15846   0.08883   1.000
    C148    C    0.50586   0.91113   0.32908   1.000
    O149    O    0.47699   0.90067   0.24806   1.000
    O150    O    0.53281   0.90841   0.41127   1.000
    O151    O    0.47954   0.86781   0.34216   1.000
    C152    C    0.28890   0.45809   0.47322   1.000
    O153    O    0.27609   0.47212   0.48206   1.000
    O154    O    0.22335   0.42949   0.50763   1.000
    O155    O    0.33809   0.50410   0.45006   1.000
    C156    C    0.78885   0.20811   0.02692   1.000
    O157    O    0.72315   0.17949   0.99278   1.000
    O158    O    0.77604   0.22213   0.01802   1.000
    O159    O    0.83821   0.25413   0.04976   1.000
    C160    C    0.99433   0.83883   0.82882   1.000
    O161    O    0.02050   0.88197   0.84165   1.000
    O162    O    0.02315   0.84932   0.74780   1.000
    O163    O    0.96745   0.84156   0.91115   1.000
    C164    C    0.50565   0.16119   0.17117   1.000
    O165    O    0.53252   0.15846   0.08883   1.000
    O166    O    0.47683   0.15071   0.25217   1.000
    O167    O    0.47949   0.11785   0.15834   1.000
    C168    C    0.21109   0.54193   0.52677   1.000
    O169    O    0.27664   0.57053   0.49236   1.000
    O170    O    0.16190   0.49592   0.54993   1.000
    O171    O    0.22390   0.52790   0.51793   1.000
    C172    C    0.78886   0.70812   0.02692   1.000
    O173    O    0.77605   0.72214   0.01802   1.000
    O174    O    0.83821   0.75414   0.04976   1.000
    O175    O    0.72316   0.67950   0.99278   1.000
    C176    C    0.71111   0.79192   0.97289   1.000
    O177    O    0.66176   0.74590   0.95014   1.000
    O178    O    0.77681   0.82054   0.00699   1.000
    O179    O    0.72392   0.77790   0.98186   1.000
    C180    C    0.71111   0.29191   0.97289   1.000
    O181    O    0.72392   0.27788   0.98186   1.000
    O182    O    0.77680   0.32052   0.00699   1.000
    O183    O    0.66175   0.24588   0.95014   1.000
    C184    C    0.00519   0.91114   0.32911   1.000
    O185    O    0.03248   0.90841   0.41129   1.000
    O186    O    0.97896   0.86781   0.34218   1.000
    O187    O    0.97665   0.90067   0.24810   1.000
    C188    C    0.28891   0.95810   0.47322   1.000
    O189    O    0.22335   0.92950   0.50763   1.000
    O190    O    0.33810   0.00410   0.45004   1.000
    O191    O    0.27609   0.97213   0.48206   1.000
    C192    C    0.00519   0.41112   0.32911   1.000
    O193    O    0.97665   0.40066   0.24810   1.000
    O194    O    0.97895   0.36780   0.34218   1.000
    O195    O    0.03248   0.40840   0.41129   1.000
    C196    C    0.49412   0.58890   0.67088   1.000
    O197    O    0.52299   0.59937   0.75189   1.000
    O198    O    0.52044   0.63222   0.65781   1.000
    O199    O    0.46717   0.59163   0.58870   1.000
    C200    C    0.50566   0.66120   0.17117   1.000
    O201    O    0.47684   0.65072   0.25219   1.000
    O202    O    0.47949   0.61786   0.15834   1.000
    O203    O    0.53253   0.65847   0.08883   1.000
    C204    C    0.21108   0.04192   0.52677   1.000
    O205    O    0.27664   0.07052   0.49234   1.000
    O206    O    0.16189   0.99592   0.54993   1.000
    O207    O    0.22390   0.02789   0.51793   1.000
    C208    C    0.99432   0.33882   0.82882   1.000
    O209    O    0.02315   0.34930   0.74780   1.000
    O210    O    0.96744   0.34155   0.91115   1.000
    O211    O    0.02049   0.38216   0.84165   1.000
    C212    C    0.49412   0.08889   0.67088   1.000
    O213    O    0.52298   0.09936   0.75189   1.000
    O214    O    0.52043   0.13221   0.65781   1.000
    O215    O    0.46717   0.09161   0.58868   1.000
loop_
    _geom_bond_atom_site_label_1
    _geom_bond_atom_site_label_2
    _geom_bond_distance
    _geom_bond_site_symmetry_2
    _ccdc_geom_bond_type
    N16    O17       1.44852      .   S
    Zr8    O17       2.49410  1_554   S
    N16    O18       1.47751      .   S
    Zr14   O18       2.65535      .   S
    N16    O19       1.36614      .   S
    Zr3    O19       2.47484      .   S
    N20    O21       1.36506      .   S
    Zr5    O21       2.47303      .   S
    N20    O22       1.48137      .   S
    Zr9    O22       2.66252      .   S
    N20    O23       1.44787      .   S
    Zr15   O23       2.49197      .   S
    N24    O25       1.44561      .   S
    Zr9    O25       2.49073  1_554   S
    N24    O26       1.37383  1_565   S
    Zr2    O26       2.48270      .   S
    N24    O27       1.47588      .   S
    Zr15   O27       2.65215      .   S
    N28    O29       1.48133      .   S
    Zr10   O29       2.66250      .   S
    N28    O30       1.44792      .   S
    Zr12   O30       2.49215  1_455   S
    N28    O31       1.36501      .   S
    Zr6    O31       2.47297      .   S
    N32    O33       1.48133      .   S
    Zr11   O33       2.66250      .   S
    N32    O34       1.44792      .   S
    Zr13   O34       2.49214  1_455   S
    N32    O35       1.36500      .   S
    Zr7    O35       2.47295      .   S
    N36    O37       1.48137      .   S
    Zr8    O37       2.66252      .   S
    N36    O38       1.36500      .   S
    Zr4    O38       2.47296      .   S
    N36    O39       1.44787      .   S
    Zr14   O39       2.49197      .   S
    N40    O41       1.36594  1_545   S
    Zr9    O41       2.47464      .   S
    N40    O42       1.47724      .   S
    Zr4    O42       2.65467      .   S
    N40    O43       1.44848      .   S
    Zr2    O43       2.49407  1_556   S
    N44    O45       1.48138      .   S
    Zr1    O45       2.66254      .   S
    N44    O46       1.36505      .   S
    Zr13   O46       2.47302      .   S
    N44    O47       1.44810      .   S
    Zr7    O47       2.49259  1_655   S
    N48    O49       1.36505      .   S
    Zr14   O49       2.47302      .   S
    N48    O50       1.48138      .   S
    Zr2    O50       2.66253      .   S
    N48    O51       1.44807      .   S
    Zr4    O51       2.49244      .   S
    N52    O53       1.48138      .   S
    Zr0    O53       2.66254      .   S
    N52    O54       1.44810      .   S
    Zr6    O54       2.49260  1_655   S
    N52    O55       1.36505      .   S
    Zr12   O55       2.47302      .   S
    N56    O57       1.36505      .   S
    Zr15   O57       2.47304      .   S
    N56    O58       1.44786      .   S
    Zr5    O58       2.49196      .   S
    N56    O59       1.48138      .   S
    Zr3    O59       2.66254      .   S
    N60    O61       1.36593  1_545   S
    Zr11   O61       2.47463      .   S
    N60    O62       1.47724      .   S
    Zr6    O62       2.65466      .   S
    N60    O63       1.44851      .   S
    Zr0    O63       2.49423  1_456   S
    N64    O65       1.36614      .   S
    Zr10   O65       2.47483      .   S
    N64    O66       1.47725      .   S
    Zr7    O66       2.65468      .   S
    N64    O67       1.44852      .   S
    Zr1    O67       2.49424  1_456   S
    N68    O69       1.36615      .   S
    Zr8    O69       2.47484      .   S
    N68    O70       1.47750      .   S
    Zr5    O70       2.65540      .   S
    N68    O71       1.44849      .   S
    Zr3    O71       2.49408  1_556   S
    N72    O73       1.47588      .   S
    Zr13   O73       2.65215      .   S
    N72    O74       1.44564      .   S
    Zr11   O74       2.49088  1_654   S
    N72    O75       1.37383  1_565   S
    Zr0    O75       2.48270      .   S
    N76    O77       1.47751      .   S
    Zr12   O77       2.65535      .   S
    N76    O78       1.44854      .   S
    Zr10   O78       2.49426  1_654   S
    N76    O79       1.36614      .   S
    Zr1    O79       2.47484      .   S
    C88    O89       0.92521  1_455   S
    N64    O89       1.70563      .   S
    C88    O90       1.15770      .   S
    Zr1    O90       2.39178  1_556   S
    C88    O91       1.15135  1_455   S
    Zr7    O91       2.40939      .   S
    C92    O93       1.14108  1_554   S
    Zr1    O93       2.39823      .   S
    C92    O94       0.38579      .   S
    C83    O94       0.77374  1_556   S
    C92    O95       1.13586      .   S
    Zr9    O95       2.38482      .   S
    C96    O97       0.38565      .   S
    C84    O97       0.77352      .   S
    C96    O98       1.13978      .   S
    Zr7    O98       2.39355      .   S
    C96    O99       1.13500      .   S
    Zr14   O99       2.38440      .   S
    C100   O101      0.38579      .   S
    C81    O101      0.77373  1_556   S
    C100   O102      1.14108  1_554   S
    Zr0    O102      2.39823      .   S
    C100   O103      1.13586      .   S
    Zr8    O103      2.38483      .   S
    C104   O105      0.92186      .   S
    N24    O105      1.69937      .   S
    C104   O106      1.15312      .   S
    Zr15   O106      2.41135      .   S
    C104   O107      1.15601      .   S
    Zr9    O107      2.39040  1_554   S
    C108   O109      0.92613  1_655   S
    N44    O109      1.71051      .   S
    C108   O110      1.15561      .   S
    Zr7    O110      2.38966      .   S
    C108   O111      1.15439  1_655   S
    Zr1    O111      2.41590      .   S
    C112   O113      0.38610      .   S
    C81    O113      0.77405      .   S
    C112   O114      1.14089  1_556   S
    Zr8    O114      2.39944      .   S
    C112   O115      1.13554      .   S
    Zr0    O115      2.38460      .   S
    C116   O117      0.92613  1_655   S
    N52    O117      1.71051      .   S
    C116   O118      1.15561      .   S
    Zr6    O118      2.38966      .   S
    C116   O119      1.15439  1_655   S
    Zr0    O119      2.41590      .   S
    C120   O121      0.38610      .   S
    C83    O121      0.77404      .   S
    C120   O122      1.14089  1_556   S
    Zr9    O122      2.39944      .   S
    C120   O123      1.13554      .   S
    Zr1    O123      2.38461      .   S
    C124   O125      1.13507      .   S
    Zr7    O125      2.38455      .   S
    C124   O126      0.38565      .   S
    C84    O126      0.77352      .   S
    C124   O127      1.13967      .   S
    Zr14   O127      2.39323      .   S
    C128   O129      1.13496  1_565   S
    Zr6    O129      2.38419      .   S
    C128   O130      0.38561      .   S
    C86    O130      0.77341  1_545   S
    C128   O131      1.13967      .   S
    Zr15   O131      2.39323      .   S
    C132   O133      1.13978      .   S
    Zr6    O133      2.39356      .   S
    C132   O134      1.13489  1_545   S
    Zr15   O134      2.38405      .   S
    C132   O135      0.38561      .   S
    C86    O135      0.77341      .   S
    C136   O137      1.15312      .   S
    Zr14   O137      2.41134      .   S
    C136   O138      0.92550      .   S
    N16    O138      1.70902      .   S
    C136   O139      1.15601      .   S
    Zr8    O139      2.39040  1_554   S
    C140   O141      1.15550      .   S
    Zr14   O141      2.38906      .   S
    C140   O142      0.92615      .   S
    N36    O142      1.71055      .   S
    C140   O143      1.15446      .   S
    Zr8    O143      2.41544      .   S
    C144   O145      0.92520  1_455   S
    N60    O145      1.70560      .   S
    C144   O146      1.15135  1_455   S
    Zr6    O146      2.40940      .   S
    C144   O147      1.15769      .   S
    Zr0    O147      2.39178  1_556   S
    C148   O149      1.15444      .   S
    Zr9    O149      2.41543      .   S
    C148   O150      1.15549      .   S
    Zr15   O150      2.38911      .   S
    C148   O151      0.92615      .   S
    N20    O151      1.71056      .   S
    C152   O153      0.38565      .   S
    C87    O153      0.77353      .   S
    C152   O154      1.13967      .   S
    Zr12   O154      2.39323      .   S
    C152   O155      1.13500      .   S
    Zr5    O155      2.38440      .   S
    C156   O157      1.14108  1_554   S
    Zr2    O157      2.39823      .   S
    C156   O158      0.38579      .   S
    C80    O158      0.77373  1_556   S
    C156   O159      1.13586      .   S
    Zr10   O159      2.38482      .   S
    C160   O161      0.92187  1_655   S
    N72    O161      1.69938      .   S
    C160   O162      1.15314  1_655   S
    Zr13   O162      2.41136      .   S
    C160   O163      1.15605      .   S
    Zr11   O163      2.39044  1_554   S
    C164   O165      1.15602      .   S
    Zr2    O165      2.39036  1_556   S
    C164   O166      1.15289      .   S
    Zr4    O166      2.41065      .   S
    C164   O167      0.92549      .   S
    N40    O167      1.70899      .   S
    C168   O169      1.13967      .   S
    Zr5    O169      2.39323      .   S
    C168   O170      1.13500      .   S
    Zr12   O170      2.38440      .   S
    C168   O171      0.38565      .   S
    C87    O171      0.77353      .   S
    C172   O173      0.38579      .   S
    C82    O173      0.77373  1_556   S
    C172   O174      1.13586      .   S
    Zr11   O174      2.38482      .   S
    C172   O175      1.14108  1_554   S
    Zr3    O175      2.39823      .   S
    C176   O177      1.13554      .   S
    Zr3    O177      2.38462      .   S
    C176   O178      1.14089  1_556   S
    Zr11   O178      2.39944      .   S
    C176   O179      0.38610      .   S
    C82    O179      0.77404      .   S
    C180   O181      0.38610      .   S
    C80    O181      0.77404      .   S
    C180   O182      1.14089  1_556   S
    Zr10   O182      2.39943      .   S
    C180   O183      1.13554      .   S
    Zr2    O183      2.38461      .   S
    C184   O185      1.15709      .   S
    Zr13   O185      2.39038      .   S
    C184   O186      0.92580  1_455   S
    N32    O186      1.70693      .   S
    C184   O187      1.15275  1_455   S
    Zr11   O187      2.41457      .   S
    C188   O189      1.13967      .   S
    Zr13   O189      2.39324      .   S
    C188   O190      1.13496  1_565   S
    Zr4    O190      2.38418      .   S
    C188   O191      0.38562      .   S
    C85    O191      0.77341  1_545   S
    C192   O193      1.15275  1_455   S
    Zr10   O193      2.41457      .   S
    C192   O194      0.92580  1_455   S
    N28    O194      1.70694      .   S
    C192   O195      1.15708      .   S
    Zr12   O195      2.39038      .   S
    C196   O197      1.15437      .   S
    Zr3    O197      2.41589      .   S
    C196   O198      0.92612      .   S
    N56    O198      1.71050      .   S
    C196   O199      1.15532      .   S
    Zr5    O199      2.38887      .   S
    C200   O201      1.15313      .   S
    Zr5    O201      2.41136      .   S
    C200   O202      0.92550      .   S
    N68    O202      1.70902      .   S
    C200   O203      1.15602      .   S
    Zr3    O203      2.39035  1_556   S
    C204   O205      1.13978      .   S
    Zr4    O205      2.39356      .   S
    C204   O206      1.13489  1_545   S
    Zr13   O206      2.38406      .   S
    C204   O207      0.38562      .   S
    C85    O207      0.77341      .   S
    C208   O209      1.15314  1_655   S
    Zr12   O209      2.41136      .   S
    C208   O210      1.15605      .   S
    Zr10   O210      2.39044  1_554   S
    C208   O211      0.92552  1_655   S
    N76    O211      1.70903      .   S
    C212   O213      1.15437      .   S
    Zr2    O213      2.41589      .   S
    C212   O214      0.92611      .   S
    N48    O214      1.71050      .   S
    C212   O215      1.15557      .   S
    Zr4    O215      2.38961      .   S
