# CIF file generated by openbabel 2.4.90, see http://openbabel.sf.net
data_I
_chemical_name_common ''
_cell_length_a 14.721
_cell_length_b 20.476
_cell_length_c 13.142
_cell_angle_alpha 89.99
_cell_angle_beta 89.928
_cell_angle_gamma 99.094
_space_group_name_H-M_alt 'P 1'
_space_group_name_Hall 'P 1'
loop_
    _symmetry_equiv_pos_as_xyz
    x,y,z
loop_
    _atom_site_label
    _atom_site_type_symbol
    _atom_site_fract_x
    _atom_site_fract_y
    _atom_site_fract_z
    _atom_site_occupancy
    Zr0     Zr   0.07668   0.13885   0.91782   1.000
    Zr1     Zr   0.07668   0.63886   0.91782   1.000
    Zr2     Zr   0.57667   0.13885   0.91782   1.000
    Zr3     Zr   0.57667   0.63886   0.91782   1.000
    Zr4     Zr   0.42311   0.11119   0.41780   1.000
    Zr5     Zr   0.42311   0.61120   0.41788   1.000
    Zr6     Zr   0.92310   0.11119   0.41780   1.000
    Zr7     Zr   0.92310   0.61120   0.41780   1.000
    Zr8     Zr   0.42331   0.36116   0.08217   1.000
    Zr9     Zr   0.42331   0.86117   0.08217   1.000
    Zr10    Zr   0.92329   0.36116   0.08217   1.000
    Zr11    Zr   0.92330   0.86117   0.08217   1.000
    Zr12    Zr   0.07688   0.38882   0.58211   1.000
    Zr13    Zr   0.07688   0.88883   0.58211   1.000
    Zr14    Zr   0.57686   0.38882   0.58211   1.000
    Zr15    Zr   0.57687   0.88884   0.58211   1.000
    Zr16    Zr   0.50191   0.14171   0.16980   1.000
    Zr17    Zr   0.50191   0.64173   0.16980   1.000
    Zr18    Zr   0.00000   0.14171   0.16980   1.000
    Zr19    Zr   0.00000   0.64173   0.16980   1.000
    Zr20    Zr   0.22349   0.27772   0.98170   1.000
    Zr21    Zr   0.22349   0.77773   0.98170   1.000
    Zr22    Zr   0.72347   0.27772   0.98170   1.000
    Zr23    Zr   0.72348   0.77773   0.98170   1.000
    Zr24    Zr   0.99800   0.10837   0.66945   1.000
    Zr25    Zr   0.99800   0.60838   0.66945   1.000
    Zr26    Zr   0.49798   0.10837   0.66945   1.000
    Zr27    Zr   0.49799   0.60839   0.66945   1.000
    Zr28    Zr   0.27655   0.47230   0.48181   1.000
    Zr29    Zr   0.27656   0.97231   0.48181   1.000
    Zr30    Zr   0.77654   0.47230   0.48181   1.000
    Zr31    Zr   0.77655   0.97231   0.48181   1.000
    Zr32    Zr   0.99807   0.35830   0.83019   1.000
    Zr33    Zr   0.99808   0.85831   0.83019   1.000
    Zr34    Zr   0.49806   0.35830   0.83019   1.000
    Zr35    Zr   0.49807   0.85831   0.83019   1.000
    Zr36    Zr   0.27650   0.22229   0.01826   1.000
    Zr37    Zr   0.27650   0.72231   0.01826   1.000
    Zr38    Zr   0.77649   0.22229   0.01826   1.000
    Zr39    Zr   0.77649   0.72231   0.01826   1.000
    Zr40    Zr   0.50199   0.39164   0.33054   1.000
    Zr41    Zr   0.50200   0.89165   0.33054   1.000
    Zr42    Zr   0.00000   0.39164   0.33054   1.000
    Zr43    Zr   0.00000   0.89165   0.33054   1.000
    Zr44    Zr   0.22343   0.02771   0.51818   1.000
    Zr45    Zr   0.22344   0.52772   0.51818   1.000
    Zr46    Zr   0.72342   0.02771   0.51818   1.000
    Zr47    Zr   0.72342   0.52772   0.51818   1.000
    Zr48    Zr   0.04214   0.17261   0.09518   1.000
    Zr49    Zr   0.04214   0.67262   0.09518   1.000
    Zr50    Zr   0.54213   0.17261   0.09518   1.000
    Zr51    Zr   0.54213   0.67262   0.09518   1.000
    Zr52    Zr   0.47292   0.16925   0.24853   1.000
    Zr53    Zr   0.47293   0.66927   0.24853   1.000
    Zr54    Zr   0.97291   0.16925   0.24853   1.000
    Zr55    Zr   0.97291   0.66927   0.24853   1.000
    Zr56    Zr   0.14814   0.26087   0.93697   1.000
    Zr57    Zr   0.14814   0.76089   0.93697   1.000
    Zr58    Zr   0.64813   0.26087   0.93697   1.000
    Zr59    Zr   0.64813   0.76089   0.93697   1.000
    Zr60    Zr   0.26173   0.33712   0.00000   1.000
    Zr61    Zr   0.26173   0.83714   0.00000   1.000
    Zr62    Zr   0.76172   0.33712   0.00000   1.000
    Zr63    Zr   0.76172   0.83714   0.00000   1.000
    Zr64    Zr   0.45734   0.07749   0.59518   1.000
    Zr65    Zr   0.45734   0.57751   0.59518   1.000
    Zr66    Zr   0.95732   0.07749   0.59518   1.000
    Zr67    Zr   0.95733   0.57750   0.59518   1.000
    Zr68    Zr   0.02705   0.08080   0.74800   1.000
    Zr69    Zr   0.02705   0.58081   0.74800   1.000
    Zr70    Zr   0.52703   0.08080   0.74800   1.000
    Zr71    Zr   0.52704   0.58081   0.74800   1.000
    Zr72    Zr   0.35145   0.48901   0.43591   1.000
    Zr73    Zr   0.35146   0.98902   0.43591   1.000
    Zr74    Zr   0.85144   0.48901   0.43591   1.000
    Zr75    Zr   0.85144   0.98902   0.43591   1.000
    Zr76    Zr   0.23870   0.41296   0.50195   1.000
    Zr77    Zr   0.23871   0.91297   0.50195   1.000
    Zr78    Zr   0.73869   0.41296   0.50195   1.000
    Zr79    Zr   0.73870   0.91297   0.50195   1.000
    Zr80    Zr   0.45784   0.32740   0.90480   1.000
    Zr81    Zr   0.45785   0.82742   0.90480   1.000
    Zr82    Zr   0.95783   0.32740   0.90480   1.000
    Zr83    Zr   0.95784   0.82742   0.90480   1.000
    Zr84    Zr   0.02706   0.33076   0.75146   1.000
    Zr85    Zr   0.02707   0.83077   0.75146   1.000
    Zr86    Zr   0.52705   0.33076   0.75146   1.000
    Zr87    Zr   0.52706   0.83077   0.75146   1.000
    Zr88    Zr   0.35185   0.23914   0.06302   1.000
    Zr89    Zr   0.35185   0.73915   0.06302   1.000
    Zr90    Zr   0.85183   0.23914   0.06302   1.000
    Zr91    Zr   0.85184   0.73915   0.06302   1.000
    Zr92    Zr   0.23826   0.16289   0.99947   1.000
    Zr93    Zr   0.23826   0.66290   0.99947   1.000
    Zr94    Zr   0.73824   0.16289   0.99947   1.000
    Zr95    Zr   0.73825   0.66290   0.99947   1.000
    Zr96    Zr   0.04265   0.42252   0.40481   1.000
    Zr97    Zr   0.04265   0.92253   0.40481   1.000
    Zr98    Zr   0.54264   0.42252   0.40481   1.000
    Zr99    Zr   0.54264   0.92253   0.40480   1.000
    Zr100   Zr   0.47294   0.41921   0.25190   1.000
    Zr101   Zr   0.47295   0.91923   0.25190   1.000
    Zr102   Zr   0.97293   0.41922   0.25199   1.000
    Zr103   Zr   0.97293   0.91923   0.25199   1.000
    Zr104   Zr   0.14853   0.01100   0.56408   1.000
    Zr105   Zr   0.14854   0.51101   0.56408   1.000
    Zr106   Zr   0.64852   0.01100   0.56408   1.000
    Zr107   Zr   0.64853   0.51101   0.56408   1.000
    Zr108   Zr   0.26128   0.08705   0.49804   1.000
    Zr109   Zr   0.26129   0.58706   0.49804   1.000
    Zr110   Zr   0.76127   0.08705   0.49804   1.000
    Zr111   Zr   0.76127   0.58706   0.49804   1.000
    O112    O    0.34252   0.34914   0.04109   1.000
    O113    O    0.24261   0.30742   0.99085   1.000
    O114    O    0.34252   0.84915   0.04109   1.000
    O115    O    0.24261   0.80743   0.99085   1.000
    O116    O    0.84250   0.34914   0.04109   1.000
    O117    O    0.74259   0.30742   0.99085   1.000
    O118    O    0.84251   0.84915   0.04109   1.000
    O119    O    0.74260   0.80743   0.99085   1.000
    O120    O    0.81416   0.73073   0.04064   1.000
    O121    O    0.74998   0.75002   0.99998   1.000
    O122    O    0.75737   0.69260   0.00886   1.000
    O123    O    0.31417   0.23071   0.04064   1.000
    O124    O    0.24999   0.25000   0.99998   1.000
    O125    O    0.25738   0.19259   0.00886   1.000
    O126    O    0.31418   0.73073   0.04064   1.000
    O127    O    0.25000   0.75002   0.99998   1.000
    O128    O    0.25738   0.69260   0.00886   1.000
    O129    O    0.81416   0.23072   0.04064   1.000
    O130    O    0.74998   0.25001   0.99998   1.000
    O131    O    0.75736   0.19259   0.00886   1.000
    O132    O    0.88756   0.30015   0.07260   1.000
    O133    O    0.38758   0.80016   0.07260   1.000
    O134    O    0.38758   0.30015   0.07260   1.000
    O135    O    0.88757   0.80016   0.07260   1.000
    O136    O    0.94811   0.89020   0.16708   1.000
    O137    O    0.94057   0.84429   0.99348   1.000
    O138    O    0.94811   0.39019   0.16708   1.000
    O139    O    0.94056   0.34428   0.99348   1.000
    O140    O    0.44813   0.89020   0.16703   1.000
    O141    O    0.44058   0.84429   0.99348   1.000
    O142    O    0.44812   0.39019   0.16703   1.000
    O143    O    0.44058   0.34428   0.99348   1.000
    O144    O    0.02107   0.15716   0.13249   1.000
    O145    O    0.05941   0.15573   0.00650   1.000
    O146    O    0.52202   0.65717   0.13249   1.000
    O147    O    0.55940   0.65574   0.00650   1.000
    O148    O    0.02107   0.65717   0.13249   1.000
    O149    O    0.05941   0.65574   0.00650   1.000
    O150    O    0.52202   0.15716   0.13249   1.000
    O151    O    0.55940   0.15573   0.00650   1.000
    O152    O    0.98646   0.15548   0.20916   1.000
    O153    O    0.98646   0.65550   0.20916   1.000
    O154    O    0.48742   0.65550   0.20916   1.000
    O155    O    0.48742   0.15548   0.20916   1.000
    O156    O    0.94801   0.64023   0.33316   1.000
    O157    O    0.94800   0.14022   0.33316   1.000
    O158    O    0.44802   0.64023   0.33320   1.000
    O159    O    0.44802   0.14022   0.33316   1.000
    O160    O    0.48747   0.90544   0.29122   1.000
    O161    O    0.48747   0.40543   0.29122   1.000
    O162    O    0.98647   0.90544   0.29126   1.000
    O163    O    0.98646   0.40543   0.29126   1.000
    O164    O    0.02132   0.40708   0.36767   1.000
    O165    O    0.52231   0.40708   0.36767   1.000
    O166    O    0.52232   0.90709   0.36767   1.000
    O167    O    0.02133   0.90709   0.36767   1.000
    O168    O    0.55975   0.90568   0.49345   1.000
    O169    O    0.55975   0.40567   0.49346   1.000
    O170    O    0.05977   0.90568   0.49346   1.000
    O171    O    0.05976   0.40567   0.49346   1.000
    O172    O    0.38728   0.05011   0.42685   1.000
    O173    O    0.34219   0.09912   0.45792   1.000
    O174    O    0.44022   0.09434   0.50649   1.000
    O175    O    0.88727   0.05011   0.42685   1.000
    O176    O    0.84218   0.09912   0.45792   1.000
    O177    O    0.94021   0.09434   0.50649   1.000
    O178    O    0.88727   0.55011   0.42685   1.000
    O179    O    0.84219   0.59913   0.45792   1.000
    O180    O    0.94022   0.59435   0.50649   1.000
    O181    O    0.38728   0.55011   0.42689   1.000
    O182    O    0.34220   0.59913   0.45796   1.000
    O183    O    0.44023   0.59435   0.50653   1.000
    O184    O    0.81399   0.98067   0.45886   1.000
    O185    O    0.81399   0.48066   0.45886   1.000
    O186    O    0.31401   0.98067   0.45886   1.000
    O187    O    0.31400   0.48066   0.45886   1.000
    O188    O    0.75762   0.94264   0.49188   1.000
    O189    O    0.74998   0.00001   0.49999   1.000
    O190    O    0.75762   0.44263   0.49188   1.000
    O191    O    0.74998   0.50001   0.49999   1.000
    O192    O    0.25763   0.94264   0.49188   1.000
    O193    O    0.24999   0.00001   0.49999   1.000
    O194    O    0.25763   0.44263   0.49188   1.000
    O195    O    0.24999   0.50001   0.49999   1.000
    O196    O    0.74235   0.55739   0.50811   1.000
    O197    O    0.24236   0.05738   0.50811   1.000
    O198    O    0.24236   0.55739   0.50811   1.000
    O199    O    0.74234   0.05738   0.50811   1.000
    O200    O    0.15779   0.40089   0.54203   1.000
    O201    O    0.15780   0.90090   0.54203   1.000
    O202    O    0.65778   0.40089   0.54203   1.000
    O203    O    0.65778   0.90090   0.54203   1.000
    O204    O    0.68597   0.01935   0.54113   1.000
    O205    O    0.68598   0.51937   0.54113   1.000
    O206    O    0.18599   0.51937   0.54113   1.000
    O207    O    0.18598   0.01935   0.54113   1.000
    O208    O    0.11271   0.94992   0.57310   1.000
    O209    O    0.61270   0.44992   0.57310   1.000
    O210    O    0.61270   0.94992   0.57310   1.000
    O211    O    0.11271   0.44992   0.57310   1.000
    O212    O    0.55196   0.85980   0.66679   1.000
    O213    O    0.55196   0.35979   0.66679   1.000
    O214    O    0.05197   0.85980   0.66679   1.000
    O215    O    0.05197   0.35979   0.66679   1.000
    O216    O    0.97767   0.59294   0.63232   1.000
    O217    O    0.97766   0.09293   0.63232   1.000
    O218    O    0.47766   0.59295   0.63232   1.000
    O219    O    0.47766   0.09293   0.63232   1.000
    O220    O    0.51251   0.59460   0.70872   1.000
    O221    O    0.51251   0.09458   0.70872   1.000
    O222    O    0.01253   0.59460   0.70872   1.000
    O223    O    0.01252   0.09458   0.70872   1.000
    O224    O    0.55185   0.60983   0.83291   1.000
    O225    O    0.55185   0.10982   0.83291   1.000
    O226    O    0.05187   0.60983   0.83291   1.000
    O227    O    0.05186   0.10982   0.83291   1.000
    O228    O    0.01257   0.34453   0.79083   1.000
    O229    O    0.01257   0.84454   0.79083   1.000
    O230    O    0.51256   0.34453   0.79083   1.000
    O231    O    0.51256   0.84454   0.79083   1.000
    O232    O    0.97795   0.34285   0.86750   1.000
    O233    O    0.97796   0.84286   0.86750   1.000
    O234    O    0.47795   0.34285   0.86750   1.000
    O235    O    0.47796   0.84286   0.86750   1.000
    O236    O    0.11241   0.19986   0.92739   1.000
    O237    O    0.15747   0.15087   0.95864   1.000
    O238    O    0.11241   0.69987   0.92739   1.000
    O239    O    0.15747   0.65088   0.95864   1.000
    O240    O    0.61240   0.19986   0.92739   1.000
    O241    O    0.65746   0.15087   0.95864   1.000
    O242    O    0.61240   0.69987   0.92739   1.000
    O243    O    0.65746   0.65088   0.95864   1.000
    O244    O    0.18581   0.26929   0.95933   1.000
    O245    O    0.18582   0.76931   0.95933   1.000
    O246    O    0.68580   0.26930   0.95933   1.000
    O247    O    0.68580   0.76931   0.95933   1.000
    N248    N    0.58528   0.45530   0.87719   1.000
    O249    O    0.54665   0.42550   0.85448   1.000
    O250    O    0.54002   0.42485   0.96719   1.000
    O251    O    0.57352   0.43939   0.76787   1.000
    O252    O    0.59327   0.52097   0.90055   1.000
    N253    N    0.41457   0.79471   0.37824   1.000
    O254    O    0.45323   0.82449   0.35524   1.000
    O255    O    0.40661   0.72907   0.40145   1.000
    O256    O    0.42636   0.81062   0.26858   1.000
    O257    O    0.45994   0.82517   0.46797   1.000
    N258    N    0.58528   0.95452   0.87719   1.000
    O259    O    0.54666   0.92512   0.85448   1.000
    O260    O    0.54002   0.92446   0.96719   1.000
    O261    O    0.59327   0.02057   0.90055   1.000
    O262    O    0.57353   0.93900   0.76787   1.000
    N263    N    0.91455   0.29470   0.37823   1.000
    O264    O    0.92634   0.31061   0.26858   1.000
    O265    O    0.95993   0.32516   0.46796   1.000
    O266    O    0.90660   0.22906   0.40143   1.000
    O267    O    0.95272   0.32447   0.35524   1.000
    N268    N    0.91456   0.79471   0.37823   1.000
    O269    O    0.92635   0.81062   0.26858   1.000
    O270    O    0.95994   0.82517   0.46796   1.000
    O271    O    0.90660   0.72907   0.40143   1.000
    O272    O    0.95272   0.82449   0.35524   1.000
    N273    N    0.41456   0.29470   0.37824   1.000
    O274    O    0.45322   0.32447   0.35524   1.000
    O275    O    0.42636   0.31061   0.26858   1.000
    O276    O    0.40661   0.22906   0.40143   1.000
    O277    O    0.45994   0.32516   0.46797   1.000
    N278    N    0.41469   0.04471   0.12280   1.000
    O279    O    0.45332   0.07451   0.14551   1.000
    O280    O    0.40671   0.97905   0.09944   1.000
    O281    O    0.42645   0.06063   0.23209   1.000
    O282    O    0.45996   0.07516   0.03280   1.000
    N283    N    0.08542   0.70532   0.62175   1.000
    O284    O    0.07363   0.68941   0.73141   1.000
    O285    O    0.04677   0.67555   0.64474   1.000
    O286    O    0.09338   0.77096   0.59854   1.000
    O287    O    0.04004   0.67486   0.53200   1.000
    N288    N    0.58541   0.20531   0.62175   1.000
    O289    O    0.54675   0.17554   0.64474   1.000
    O290    O    0.59336   0.27095   0.59854   1.000
    O291    O    0.57362   0.18940   0.73141   1.000
    O292    O    0.54003   0.17485   0.53200   1.000
    N293    N    0.08542   0.20531   0.62175   1.000
    O294    O    0.07363   0.18940   0.73141   1.000
    O295    O    0.04004   0.17485   0.53200   1.000
    O296    O    0.09338   0.27095   0.59854   1.000
    O297    O    0.04676   0.17554   0.64474   1.000
    N298    N    0.58541   0.70532   0.62175   1.000
    O299    O    0.59337   0.77096   0.59854   1.000
    O300    O    0.54004   0.67486   0.53202   1.000
    O301    O    0.57362   0.68941   0.73141   1.000
    O302    O    0.54675   0.67555   0.64474   1.000
    N303    N    0.91468   0.04471   0.12280   1.000
    O304    O    0.90669   0.97905   0.09944   1.000
    O305    O    0.92644   0.06063   0.23209   1.000
    O306    O    0.95995   0.07516   0.03280   1.000
    O307    O    0.95284   0.07451   0.14551   1.000
    N308    N    0.91469   0.54472   0.12280   1.000
    O309    O    0.95284   0.57452   0.14551   1.000
    O310    O    0.90669   0.47905   0.09944   1.000
    O311    O    0.92644   0.56064   0.23209   1.000
    O312    O    0.95996   0.57517   0.03280   1.000
    N313    N    0.41470   0.54472   0.12280   1.000
    O314    O    0.45333   0.57452   0.14551   1.000
    O315    O    0.40671   0.47905   0.09944   1.000
    O316    O    0.42646   0.56064   0.23211   1.000
    O317    O    0.45996   0.57517   0.03280   1.000
    N318    N    0.08529   0.95452   0.87719   1.000
    O319    O    0.07354   0.93900   0.76787   1.000
    O320    O    0.04667   0.92512   0.85448   1.000
    O321    O    0.04002   0.92446   0.96719   1.000
    O322    O    0.09328   0.02057   0.90055   1.000
    N323    N    0.08529   0.45530   0.87719   1.000
    O324    O    0.07353   0.43939   0.76787   1.000
    O325    O    0.04002   0.42485   0.96719   1.000
    O326    O    0.04666   0.42550   0.85448   1.000
    O327    O    0.09328   0.52097   0.90055   1.000
loop_
    _geom_bond_atom_site_label_1
    _geom_bond_atom_site_label_2
    _geom_bond_distance
    _geom_bond_site_symmetry_2
    _ccdc_geom_bond_type
    Zr60   O112      1.29447      .   S
    Zr8    O112      1.29447      .   S
    Zr60   O113      0.64001  1_554   S
    Zr20   O113      0.64001      .   S
    Zr61   O114      1.29447      .   S
    Zr9    O114      1.29447      .   S
    Zr61   O115      0.64001  1_554   S
    Zr21   O115      0.64001      .   S
    Zr62   O116      1.29446      .   S
    Zr10   O116      1.29446      .   S
    Zr62   O117      0.64002  1_554   S
    Zr22   O117      0.64002      .   S
    Zr63   O118      1.29447      .   S
    Zr11   O118      1.29447      .   S
    Zr63   O119      0.64002  1_554   S
    Zr23   O119      0.64002      .   S
    Zr39   O120      0.62769      .   S
    Zr91   O120      0.62769      .   S
    Zr39   O121      0.77595  1_554   S
    Zr23   O121      0.77595      .   S
    Zr39   O122      0.64063      .   S
    Zr95   O122      0.64063  1_556   S
    Zr36   O123      0.62769      .   S
    Zr88   O123      0.62769      .   S
    Zr36   O124      0.77596  1_554   S
    Zr20   O124      0.77596      .   S
    Zr36   O125      0.64063      .   S
    Zr92   O125      0.64063  1_556   S
    Zr37   O126      0.62769      .   S
    Zr89   O126      0.62769      .   S
    Zr37   O127      0.77596  1_554   S
    Zr21   O127      0.77596      .   S
    Zr37   O128      0.64063      .   S
    Zr93   O128      0.64063  1_556   S
    Zr38   O129      0.62769      .   S
    Zr90   O129      0.62769      .   S
    Zr38   O130      0.77594  1_554   S
    Zr22   O130      0.77594      .   S
    Zr38   O131      0.64063      .   S
    Zr94   O131      0.64063  1_556   S
    Zr90   O132      1.28285      .   S
    Zr10   O132      1.28285      .   S
    Zr89   O133      1.28285      .   S
    Zr9    O133      1.28285      .   S
    Zr88   O134      1.28285      .   S
    Zr8    O134      1.28285      .   S
    Zr91   O135      1.28285      .   S
    Zr11   O135      1.28285      .   S
    Zr11   O136      1.29017      .   S
    Zr103  O136      1.29017      .   S
    Zr11   O137      1.25285  1_554   S
    Zr83   O137      1.25285      .   S
    Zr10   O138      1.29018      .   S
    Zr102  O138      1.29018      .   S
    Zr10   O139      1.25285  1_554   S
    Zr82   O139      1.25285      .   S
    Zr9    O140      1.28967      .   S
    Zr101  O140      1.28967      .   S
    Zr9    O141      1.25284  1_554   S
    Zr81   O141      1.25284      .   S
    Zr8    O142      1.28967      .   S
    Zr100  O142      1.28967      .   S
    Zr8    O143      1.25284  1_554   S
    Zr80   O143      1.25284      .   S
    Zr48   O144      0.63657      .   S
    Zr18   O144      0.63657      .   S
    Zr48   O145      1.25279      .   S
    Zr0    O145      1.25279  1_556   S
    Zr51   O146      0.63092      .   S
    Zr17   O146      0.63092      .   S
    Zr51   O147      1.25279      .   S
    Zr3    O147      1.25279  1_556   S
    Zr49   O148      0.63657      .   S
    Zr19   O148      0.63657      .   S
    Zr49   O149      1.25279      .   S
    Zr1    O149      1.25279  1_556   S
    Zr50   O150      0.63092      .   S
    Zr16   O150      0.63092      .   S
    Zr50   O151      1.25279      .   S
    Zr2    O151      1.25279  1_556   S
    Zr18   O152      0.63597  1_455   S
    Zr54   O152      0.63597      .   S
    Zr19   O153      0.63595  1_455   S
    Zr55   O153      0.63595      .   S
    Zr17   O154      0.64145      .   S
    Zr53   O154      0.64145      .   S
    Zr16   O155      0.64145      .   S
    Zr52   O155      0.64145      .   S
    Zr55   O156      1.28640      .   S
    Zr7    O156      1.28640      .   S
    Zr54   O157      1.28641      .   S
    Zr6    O157      1.28641      .   S
    Zr53   O158      1.28686      .   S
    Zr5    O158      1.28686      .   S
    Zr52   O159      1.28641      .   S
    Zr4    O159      1.28641      .   S
    Zr101  O160      0.64169      .   S
    Zr41   O160      0.64169      .   S
    Zr100  O161      0.64168      .   S
    Zr40   O161      0.64168      .   S
    Zr103  O162      0.63546      .   S
    Zr43   O162      0.63546  1_455   S
    Zr102  O163      0.63547      .   S
    Zr42   O163      0.63547  1_455   S
    Zr42   O164      0.63697      .   S
    Zr96   O164      0.63697      .   S
    Zr40   O165      0.63099      .   S
    Zr98   O165      0.63099      .   S
    Zr41   O166      0.63094      .   S
    Zr99   O166      0.63094      .   S
    Zr43   O167      0.63698      .   S
    Zr97   O167      0.63698      .   S
    Zr99   O168      1.25220      .   S
    Zr15   O168      1.25220      .   S
    Zr98   O169      1.25214      .   S
    Zr14   O169      1.25214      .   S
    Zr97   O170      1.25215      .   S
    Zr13   O170      1.25215      .   S
    Zr96   O171      1.25215      .   S
    Zr12   O171      1.25215      .   S
    Zr4    O172      1.28369      .   S
    Zr73   O172      1.28369  1_565   S
    Zr4    O173      1.28965      .   S
    Zr108  O173      1.28965      .   S
    Zr4    O174      1.25263      .   S
    Zr64   O174      1.25263      .   S
    Zr6    O175      1.28369      .   S
    Zr75   O175      1.28369  1_565   S
    Zr6    O176      1.28965      .   S
    Zr110  O176      1.28965      .   S
    Zr6    O177      1.25263      .   S
    Zr66   O177      1.25263      .   S
    Zr7    O178      1.28394      .   S
    Zr74   O178      1.28394      .   S
    Zr7    O179      1.28964      .   S
    Zr111  O179      1.28964      .   S
    Zr7    O180      1.25264      .   S
    Zr67   O180      1.25264      .   S
    Zr5    O181      1.28388      .   S
    Zr72   O181      1.28388      .   S
    Zr5    O182      1.28944      .   S
    Zr109  O182      1.28944      .   S
    Zr5    O183      1.25214      .   S
    Zr65   O183      1.25214      .   S
    Zr75   O184      0.62762      .   S
    Zr31   O184      0.62762      .   S
    Zr74   O185      0.62763      .   S
    Zr30   O185      0.62763      .   S
    Zr73   O186      0.62763      .   S
    Zr29   O186      0.62763      .   S
    Zr72   O187      0.62762      .   S
    Zr28   O187      0.62762      .   S
    Zr31   O188      0.64077      .   S
    Zr79   O188      0.64077      .   S
    Zr31   O189      0.77566  1_565   S
    Zr46   O189      0.77566      .   S
    Zr30   O190      0.64077      .   S
    Zr78   O190      0.64077      .   S
    Zr30   O191      0.77581      .   S
    Zr47   O191      0.77581      .   S
    Zr29   O192      0.64077      .   S
    Zr77   O192      0.64077      .   S
    Zr29   O193      0.77566  1_565   S
    Zr44   O193      0.77566      .   S
    Zr28   O194      0.64077      .   S
    Zr76   O194      0.64077      .   S
    Zr28   O195      0.77582      .   S
    Zr45   O195      0.77582      .   S
    Zr111  O196      0.64077      .   S
    Zr47   O196      0.64077      .   S
    Zr108  O197      0.64077      .   S
    Zr44   O197      0.64077      .   S
    Zr109  O198      0.64077      .   S
    Zr45   O198      0.64077      .   S
    Zr110  O199      0.64077      .   S
    Zr46   O199      0.64077      .   S
    Zr76   O200      1.28943      .   S
    Zr12   O200      1.28943      .   S
    Zr77   O201      1.28944      .   S
    Zr13   O201      1.28944      .   S
    Zr78   O202      1.28943      .   S
    Zr14   O202      1.28943      .   S
    Zr79   O203      1.28943      .   S
    Zr15   O203      1.28943      .   S
    Zr46   O204      0.62762      .   S
    Zr106  O204      0.62762      .   S
    Zr47   O205      0.62763      .   S
    Zr107  O205      0.62763      .   S
    Zr45   O206      0.62762      .   S
    Zr105  O206      0.62762      .   S
    Zr44   O207      0.62763      .   S
    Zr104  O207      0.62763      .   S
    Zr104  O208      1.28365  1_545   S
    Zr13   O208      1.28365      .   S
    Zr107  O209      1.28389      .   S
    Zr14   O209      1.28389      .   S
    Zr106  O210      1.28364  1_545   S
    Zr15   O210      1.28364      .   S
    Zr105  O211      1.28389      .   S
    Zr12   O211      1.28389      .   S
    Zr15   O212      1.28686      .   S
    Zr87   O212      1.28686      .   S
    Zr14   O213      1.28686      .   S
    Zr86   O213      1.28686      .   S
    Zr13   O214      1.28686      .   S
    Zr85   O214      1.28686      .   S
    Zr12   O215      1.28686      .   S
    Zr84   O215      1.28686      .   S
    Zr67   O216      0.63106      .   S
    Zr25   O216      0.63106      .   S
    Zr66   O217      0.63107      .   S
    Zr24   O217      0.63107      .   S
    Zr65   O218      0.63099      .   S
    Zr27   O218      0.63099      .   S
    Zr64   O219      0.63099      .   S
    Zr26   O219      0.63099      .   S
    Zr27   O220      0.64122      .   S
    Zr71   O220      0.64122      .   S
    Zr26   O221      0.64122      .   S
    Zr70   O221      0.64122      .   S
    Zr25   O222      0.64121  1_655   S
    Zr69   O222      0.64121      .   S
    Zr24   O223      0.64121  1_655   S
    Zr68   O223      0.64121      .   S
    Zr71   O224      1.29018      .   S
    Zr3    O224      1.29018      .   S
    Zr70   O225      1.29018      .   S
    Zr2    O225      1.29018      .   S
    Zr69   O226      1.29017      .   S
    Zr1    O226      1.29017      .   S
    Zr68   O227      1.29017      .   S
    Zr0    O227      1.29017      .   S
    Zr84   O228      0.64144      .   S
    Zr32   O228      0.64144  1_655   S
    Zr85   O229      0.64145      .   S
    Zr33   O229      0.64145  1_655   S
    Zr86   O230      0.64145      .   S
    Zr34   O230      0.64145      .   S
    Zr87   O231      0.64145      .   S
    Zr35   O231      0.64145      .   S
    Zr32   O232      0.63095      .   S
    Zr82   O232      0.63095      .   S
    Zr33   O233      0.63095      .   S
    Zr83   O233      0.63095      .   S
    Zr34   O234      0.63088      .   S
    Zr80   O234      0.63088      .   S
    Zr35   O235      0.63087      .   S
    Zr81   O235      0.63087      .   S
    Zr0    O236      1.28285      .   S
    Zr56   O236      1.28285      .   S
    Zr0    O237      1.29303      .   S
    Zr92   O237      1.29303      .   S
    Zr1    O238      1.28285      .   S
    Zr57   O238      1.28285      .   S
    Zr1    O239      1.29303      .   S
    Zr93   O239      1.29303      .   S
    Zr2    O240      1.28286      .   S
    Zr58   O240      1.28286      .   S
    Zr2    O241      1.29303      .   S
    Zr94   O241      1.29303      .   S
    Zr3    O242      1.28286      .   S
    Zr59   O242      1.28286      .   S
    Zr3    O243      1.29303      .   S
    Zr95   O243      1.29303      .   S
    Zr56   O244      0.62760      .   S
    Zr20   O244      0.62760      .   S
    Zr57   O245      0.62760      .   S
    Zr21   O245      0.62760      .   S
    Zr58   O246      0.62760      .   S
    Zr22   O246      0.62760      .   S
    Zr59   O247      0.62759      .   S
    Zr23   O247      0.62759      .   S
    N248   O249      0.82193      .   S
    Zr34   O249      1.48214      .   S
    N248   O250      1.44852      .   S
    Zr8    O250      2.49410  1_554   S
    N248   O251      1.47751      .   S
    Zr14   O251      2.65535      .   S
    N248   O252      1.36614      .   S
    Zr3    O252      2.47484      .   S
    N253   O254      0.82261      .   S
    Zr41   O254      1.48299      .   S
    N253   O255      1.36506      .   S
    Zr5    O255      2.47303      .   S
    N253   O256      1.48137      .   S
    Zr9    O256      2.66252      .   S
    N253   O257      1.44787      .   S
    Zr15   O257      2.49197      .   S
    N258   O259      0.81678      .   S
    Zr35   O259      1.47519      .   S
    N258   O260      1.44561      .   S
    Zr9    O260      2.49073  1_554   S
    N258   O261      1.37383  1_565   S
    Zr2    O261      2.48270      .   S
    N258   O262      1.47588      .   S
    Zr15   O262      2.65215      .   S
    N263   O264      1.48133      .   S
    Zr10   O264      2.66250      .   S
    N263   O265      1.44792      .   S
    Zr12   O265      2.49215  1_455   S
    N263   O266      1.36501      .   S
    Zr6    O266      2.47297      .   S
    N263   O267      0.81842      .   S
    Zr42   O267      1.47577  1_455   S
    N268   O269      1.48133      .   S
    Zr11   O269      2.66250      .   S
    N268   O270      1.44792      .   S
    Zr13   O270      2.49214  1_455   S
    N268   O271      1.36500      .   S
    Zr7    O271      2.47295      .   S
    N268   O272      0.81841      .   S
    Zr43   O272      1.47575  1_455   S
    N273   O274      0.82261      .   S
    Zr40   O274      1.48299      .   S
    N273   O275      1.48137      .   S
    Zr8    O275      2.66252      .   S
    N273   O276      1.36500      .   S
    Zr4    O276      2.47296      .   S
    N273   O277      1.44787      .   S
    Zr14   O277      2.49197      .   S
    N278   O279      0.82192      .   S
    Zr16   O279      1.48213      .   S
    N278   O280      1.36594  1_545   S
    Zr9    O280      2.47464      .   S
    N278   O281      1.47724      .   S
    Zr4    O281      2.65467      .   S
    N278   O282      1.44848      .   S
    Zr2    O282      2.49407  1_556   S
    N283   O284      1.48138      .   S
    Zr1    O284      2.66254      .   S
    N283   O285      0.82260      .   S
    Zr25   O285      1.48299  1_655   S
    N283   O286      1.36505      .   S
    Zr13   O286      2.47302      .   S
    N283   O287      1.44810      .   S
    Zr7    O287      2.49259  1_655   S
    N288   O289      0.82261      .   S
    Zr26   O289      1.48299      .   S
    N288   O290      1.36505      .   S
    Zr14   O290      2.47302      .   S
    N288   O291      1.48138      .   S
    Zr2    O291      2.66253      .   S
    N288   O292      1.44807      .   S
    Zr4    O292      2.49244      .   S
    N293   O294      1.48138      .   S
    Zr0    O294      2.66254      .   S
    N293   O295      1.44810      .   S
    Zr6    O295      2.49260  1_655   S
    N293   O296      1.36505      .   S
    Zr12   O296      2.47302      .   S
    N293   O297      0.82260      .   S
    Zr24   O297      1.48298  1_655   S
    N298   O299      1.36505      .   S
    Zr15   O299      2.47304      .   S
    N298   O300      1.44786      .   S
    Zr5    O300      2.49196      .   S
    N298   O301      1.48138      .   S
    Zr3    O301      2.66254      .   S
    N298   O302      0.82261      .   S
    Zr27   O302      1.48299      .   S
    N303   O304      1.36593  1_545   S
    Zr11   O304      2.47463      .   S
    N303   O305      1.47724      .   S
    Zr6    O305      2.65466      .   S
    N303   O306      1.44851      .   S
    Zr0    O306      2.49423  1_456   S
    N303   O307      0.81792      .   S
    Zr18   O307      1.47521  1_455   S
    N308   O309      0.81793      .   S
    Zr19   O309      1.47523  1_455   S
    N308   O310      1.36614      .   S
    Zr10   O310      2.47483      .   S
    N308   O311      1.47725      .   S
    Zr7    O311      2.65468      .   S
    N308   O312      1.44852      .   S
    Zr1    O312      2.49424  1_456   S
    N313   O314      0.82194      .   S
    Zr17   O314      1.48215      .   S
    N313   O315      1.36615      .   S
    Zr8    O315      2.47484      .   S
    N313   O316      1.47750      .   S
    Zr5    O316      2.65540      .   S
    N313   O317      1.44849      .   S
    Zr3    O317      2.49408  1_556   S
    N318   O319      1.47588      .   S
    Zr13   O319      2.65215      .   S
    N318   O320      0.81677      .   S
    Zr33   O320      1.47518  1_655   S
    N318   O321      1.44564      .   S
    Zr11   O321      2.49088  1_654   S
    N318   O322      1.37383  1_565   S
    Zr0    O322      2.48270      .   S
    N323   O324      1.47751      .   S
    Zr12   O324      2.65535      .   S
    N323   O325      1.44854      .   S
    Zr10   O325      2.49426  1_654   S
    N323   O326      0.82192      .   S
    Zr32   O326      1.48215  1_655   S
    N323   O327      1.36614      .   S
    Zr1    O327      2.47484      .   S
