# CIF file generated by openbabel 2.4.90, see http://openbabel.sf.net
data_I
_chemical_name_common 'ZnH5C6(N2O)2'
_cell_length_a 12.884
_cell_length_b 13.185
_cell_length_c 16.252
_cell_angle_alpha 113.652
_cell_angle_beta 112.964
_cell_angle_gamma 90.493
_space_group_name_H-M_alt 'P 1'
_space_group_name_Hall 'P 1'
loop_
    _symmetry_equiv_pos_as_xyz
    x,y,z
loop_
    _atom_site_label
    _atom_site_type_symbol
    _atom_site_fract_x
    _atom_site_fract_y
    _atom_site_fract_z
    _atom_site_occupancy
    Zn0     Zn   0.58865   0.13346   0.61281   1.000
    Zn1     Zn   0.02343   0.47920   0.61293   1.000
    Zn2     Zn   0.49010   0.59019   0.61517   1.000
    Zn3     Zn   0.12435   0.02518   0.61551   1.000
    Zn4     Zn   0.41130   0.86651   0.38707   1.000
    Zn5     Zn   0.97658   0.52076   0.38695   1.000
    Zn6     Zn   0.50990   0.40978   0.38470   1.000
    Zn7     Zn   0.87560   0.97475   0.38437   1.000
    H8      H    0.00000   0.13666   0.83826   1.000
    H9      H    0.80673   0.11568   0.56393   1.000
    H10     H    0.64310   0.81847   0.23344   1.000
    H11     H    0.50795   0.78789   0.23189   1.000
    H12     H    0.91244   0.70246   0.84018   1.000
    H13     H    0.75717   0.44795   0.56415   1.000
    H14     H    0.59189   0.41535   0.23365   1.000
    H15     H    0.72530   0.44502   0.23204   1.000
    H16     H    0.70316   0.00000   0.83824   1.000
    H17     H    0.48296   0.80846   0.57151   1.000
    H18     H    0.37758   0.62442   0.22130   1.000
    H19     H    0.39885   0.49008   0.21839   1.000
    H20     H    0.13514   0.90990   0.84041   1.000
    H21     H    0.08823   0.76307   0.57184   1.000
    H22     H    0.84690   0.59785   0.22152   1.000
    H23     H    0.82295   0.72915   0.21853   1.000
    H24     H    0.07414   0.86328   0.16159   1.000
    H25     H    0.19324   0.88424   0.43597   1.000
    H26     H    0.35685   0.18149   0.76644   1.000
    H27     H    0.49199   0.21209   0.76799   1.000
    H28     H    0.08753   0.29744   0.15967   1.000
    H29     H    0.24283   0.55205   0.43575   1.000
    H30     H    0.40811   0.58455   0.76621   1.000
    H31     H    0.27471   0.55488   0.76782   1.000
    H32     H    0.29676   0.07136   0.16165   1.000
    H33     H    0.51698   0.19149   0.42834   1.000
    H34     H    0.62237   0.37553   0.77855   1.000
    H35     H    0.60115   0.50989   0.78147   1.000
    H36     H    0.86473   0.09006   0.15948   1.000
    H37     H    0.91172   0.23688   0.42803   1.000
    H38     H    0.15311   0.40210   0.77834   1.000
    H39     H    0.17704   0.27080   0.78133   1.000
    H40     H    0.09209   0.17351   0.99852   1.000
    H41     H    0.75181   0.34680   0.00032   1.000
    H42     H    0.90782   0.82638   0.00133   1.000
    H43     H    0.24817   0.65319   0.99960   1.000
    H44     H    0.82610   0.09456   0.99832   1.000
    H45     H    0.65618   0.75644   0.00048   1.000
    H46     H    0.17377   0.90547   0.00161   1.000
    H47     H    0.34374   0.24350   0.99937   1.000
    C48     C    0.82828   0.23954   0.90919   1.000
    C49     C    0.92474   0.19087   0.90906   1.000
    C50     C    0.62859   0.91010   0.36153   1.000
    C51     C    0.73428   0.05063   0.50230   1.000
    C52     C    0.72650   0.21883   0.81474   1.000
    C53     C    0.08057   0.66978   0.90972   1.000
    C54     C    0.98452   0.71891   0.91059   1.000
    C55     C    0.73383   0.45189   0.36170   1.000
    C56     C    0.76828   0.45170   0.50252   1.000
    C57     C    0.08700   0.59548   0.81475   1.000
    C58     C    0.67145   0.83234   0.90933   1.000
    C59     C    0.71965   0.92806   0.90909   1.000
    C60     C    0.42358   0.61489   0.35270   1.000
    C61     C    0.46779   0.73205   0.50508   1.000
    C62     C    0.59935   0.73068   0.81484   1.000
    C63     C    0.23747   0.07682   0.90977   1.000
    C64     C    0.18969   0.98142   0.91076   1.000
    C65     C    0.93130   0.73835   0.35283   1.000
    C66     C    0.03771   0.77320   0.50534   1.000
    C67     C    0.21397   0.08337   0.81465   1.000
    C68     C    0.17166   0.76042   0.09069   1.000
    C69     C    0.07519   0.80907   0.09080   1.000
    C70     C    0.37136   0.08986   0.63836   1.000
    C71     C    0.26569   0.94931   0.49759   1.000
    C72     C    0.27345   0.78116   0.18515   1.000
    C73     C    0.91941   0.33016   0.09016   1.000
    C74     C    0.01544   0.28101   0.08927   1.000
    C75     C    0.26617   0.54803   0.63816   1.000
    C76     C    0.23173   0.54828   0.49737   1.000
    C77     C    0.91300   0.40448   0.18514   1.000
    C78     C    0.32849   0.16764   0.09053   1.000
    C79     C    0.28026   0.07194   0.09080   1.000
    C80     C    0.57639   0.38507   0.64716   1.000
    C81     C    0.53217   0.26791   0.49477   1.000
    C82     C    0.40061   0.26930   0.18501   1.000
    C83     C    0.76244   0.92312   0.09009   1.000
    C84     C    0.81020   0.01855   0.08912   1.000
    C85     C    0.06869   0.26159   0.64703   1.000
    C86     C    0.96225   0.22674   0.49453   1.000
    C87     C    0.78594   0.91654   0.18520   1.000
    C88     C    0.01767   0.21173   0.99892   1.000
    C89     C    0.82648   0.30913   0.99993   1.000
    C90     C    0.98226   0.78820   0.00095   1.000
    C91     C    0.17348   0.69085   0.99998   1.000
    C92     C    0.78853   0.02071   0.99881   1.000
    C93     C    0.69288   0.83070   0.00003   1.000
    C94     C    0.21135   0.97929   0.00111   1.000
    C95     C    0.30703   0.16925   0.99985   1.000
    N96     N    0.63370   0.03360   0.50378   1.000
    N97     N    0.56355   0.94303   0.41253   1.000
    N98     N    0.73647   0.97722   0.41610   1.000
    N99     N    0.59460   0.82200   0.27173   1.000
    N100    N    0.87023   0.47051   0.50393   1.000
    N101    N    0.84956   0.47009   0.41265   1.000
    N102    N    0.68036   0.43896   0.41634   1.000
    N103    N    0.67833   0.45041   0.27193   1.000
    N104    N    0.48219   0.63309   0.50578   1.000
    N105    N    0.45345   0.55574   0.40741   1.000
    N106    N    0.43168   0.72659   0.41262   1.000
    N107    N    0.38638   0.57016   0.25378   1.000
    N108    N    0.02397   0.87284   0.50600   1.000
    N109    N    0.95541   0.85204   0.40754   1.000
    N110    N    0.98239   0.68642   0.41281   1.000
    N111    N    0.87098   0.68444   0.25379   1.000
    N112    N    0.36626   0.96635   0.49610   1.000
    N113    N    0.43640   0.05694   0.58734   1.000
    N114    N    0.26349   0.02272   0.58380   1.000
    N115    N    0.40535   0.17798   0.72814   1.000
    N116    N    0.12977   0.52946   0.49596   1.000
    N117    N    0.15045   0.52985   0.58723   1.000
    N118    N    0.31965   0.56099   0.58354   1.000
    N119    N    0.32167   0.54946   0.72792   1.000
    N120    N    0.51780   0.36687   0.49408   1.000
    N121    N    0.54654   0.44422   0.59245   1.000
    N122    N    0.56827   0.27337   0.58724   1.000
    N123    N    0.61360   0.42980   0.74608   1.000
    N124    N    0.97598   0.12710   0.49387   1.000
    N125    N    0.04456   0.14790   0.59233   1.000
    N126    N    0.01759   0.31353   0.58705   1.000
    N127    N    0.12903   0.31551   0.74607   1.000
    O128    O    0.64275   0.26640   0.81935   1.000
    O129    O    0.72909   0.15282   0.73176   1.000
    O130    O    0.17476   0.55166   0.81859   1.000
    O131    O    0.00150   0.57890   0.73211   1.000
    O132    O    0.55898   0.64569   0.81865   1.000
    O133    O    0.58213   0.73398   0.73217   1.000
    O134    O    0.25701   0.17204   0.81749   1.000
    O135    O    0.14890   0.99722   0.73242   1.000
    O136    O    0.35720   0.73358   0.18055   1.000
    O137    O    0.27085   0.84717   0.26813   1.000
    O138    O    0.82526   0.44831   0.18131   1.000
    O139    O    0.00000   0.42104   0.26777   1.000
    O140    O    0.44100   0.35426   0.18117   1.000
    O141    O    0.41785   0.26601   0.26769   1.000
    O142    O    0.74291   0.82785   0.18233   1.000
    O143    O    0.85100   0.00268   0.26743   1.000
loop_
    _geom_bond_atom_site_label_1
    _geom_bond_atom_site_label_2
    _geom_bond_distance
    _geom_bond_site_symmetry_2
    _ccdc_geom_bond_type
    C93    H45       1.08770      .   S
    C93    C83       1.39897      .   S
    C93    C58       1.39896  1_554   S
    H41    C89       1.08759  1_554   S
    C90    H42       1.08802      .   S
    C90    C69       1.39619  1_655   S
    C90    C54       1.39623  1_554   S
    C94    H46       1.08784      .   S
    C94    C79       1.39569  1_565   S
    C94    C64       1.39570  1_554   S
    C84    C83       1.40434  1_545   S
    C84    H36       1.08940      .   S
    C84    C92       1.39537  1_554   S
    C74    C73       1.40407  1_455   S
    C74    H28       1.08953      .   S
    C74    C88       1.39588  1_554   S
    C83    C87       1.49373      .   S
    C73    C77       1.49568      .   S
    C73    C89       1.39952  1_554   S
    C78    C79       1.40404      .   S
    C78    C82       1.49395      .   S
    C78    C95       1.39865  1_554   S
    C68    C69       1.40393      .   S
    C68    C72       1.49576      .   S
    C68    C91       1.39920  1_554   S
    C79    H32       1.08960      .   S
    C69    H24       1.08962      .   S
    O136   C72       1.26508      .   S
    O140   C82       1.26520      .   S
    O138   C77       1.26533      .   S
    O142   C87       1.26571      .   S
    C82    O141      1.29255      .   S
    C77    O139      1.30137  1_655   S
    C72    O137      1.29273      .   S
    C87    O143      1.29243  1_565   S
    H19    N107      1.02918      .   S
    H23    N111      1.02921      .   S
    H18    N107      1.03008      .   S
    H22    N111      1.03023      .   S
    H11    N99       1.03030      .   S
    H15    N103      1.03029      .   S
    H10    N99       1.02993      .   S
    H14    N103      1.03002      .   S
    N107   C60       1.33989      .   S
    N111   C65       1.34032      .   S
    O143   Zn7       1.98531  1_545   S
    O141   Zn6       1.98119      .   S
    O139   Zn5       1.99768  1_455   S
    O137   Zn4       1.98580      .   S
    N99    C50       1.34282      .   S
    N103   C55       1.34280      .   S
    C60    N105      1.35698      .   S
    C60    N106      1.37672      .   S
    C65    N109      1.35690      .   S
    C65    N110      1.37662      .   S
    C50    N97       1.35553      .   S
    C50    N98       1.37442      .   S
    C55    N101      1.35549      .   S
    C55    N102      1.37436      .   S
    Zn7    N109      2.00797      .   S
    Zn7    N98       2.04663      .   S
    Zn7    N124      2.04100  1_565   S
    Zn6    N105      2.00815      .   S
    Zn6    N102      2.04476      .   S
    Zn6    N120      2.03894      .   S
    Zn5    N101      2.00930      .   S
    Zn5    N110      2.04674      .   S
    Zn5    N116      2.03768  1_655   S
    Zn4    N97       2.00859      .   S
    Zn4    N106      2.04521      .   S
    Zn4    N112      2.03798      .   S
    N105   N104      1.39873      .   S
    N109   N108      1.39890  1_655   S
    N97    N96       1.39883  1_565   S
    N106   C61       1.35905      .   S
    N101   N100      1.39882      .   S
    N110   C66       1.35922  1_655   S
    N98    C51       1.35786  1_565   S
    N102   C56       1.35752      .   S
    H37    C86       1.08539      .   S
    H33    C81       1.08538      .   S
    H29    C76       1.08521      .   S
    H25    C71       1.08518      .   S
    N124   C86       1.32351      .   S
    N124   N125      1.39891  1_655   S
    N120   C81       1.32337      .   S
    N120   N121      1.39874      .   S
    C86    N126      1.35922  1_655   S
    C81    N122      1.35905      .   S
    N116   C76       1.32434      .   S
    N116   N117      1.39882      .   S
    N112   C71       1.32439      .   S
    N112   N113      1.39883  1_565   S
    C76    N118      1.35751      .   S
    C71    N114      1.35786  1_565   S
    C51    N96       1.32439      .   S
    C51    H9        1.08518      .   S
    C56    N100      1.32433      .   S
    C56    H13       1.08520      .   S
    N96    Zn0       2.03805      .   S
    N100   Zn1       2.03769  1_655   S
    C61    N104      1.32337      .   S
    C61    H17       1.08537      .   S
    C66    N108      1.32350      .   S
    C66    H21       1.08538      .   S
    N104   Zn2       2.03893      .   S
    N108   Zn3       2.04096  1_565   S
    N118   Zn2       2.04482      .   S
    N118   C75       1.37437      .   S
    N114   Zn3       2.04662      .   S
    N114   C70       1.37442      .   S
    N126   Zn1       2.04682      .   S
    N126   C85       1.37661      .   S
    N117   Zn1       2.00930      .   S
    N117   C75       1.35548      .   S
    N122   Zn0       2.04515      .   S
    N122   C80       1.37671      .   S
    N113   Zn0       2.00862      .   S
    N113   C70       1.35551      .   S
    N125   Zn3       2.00803      .   S
    N125   C85       1.35691      .   S
    N121   Zn2       2.00814      .   S
    N121   C80       1.35698      .   S
    Zn0    O129      1.98574      .   S
    Zn1    O131      1.98732      .   S
    Zn2    O133      1.98127      .   S
    Zn3    O135      1.98536  1_545   S
    C75    N119      1.34282      .   S
    C70    N115      1.34284      .   S
    C85    N127      1.34033      .   S
    C80    N123      1.33992      .   S
    N119   H30       1.03002      .   S
    N119   H31       1.03030      .   S
    N115   H26       1.02992      .   S
    N115   H27       1.03031      .   S
    O129   C52       1.29274      .   S
    O131   C57       1.29264      .   S
    O133   C62       1.29254      .   S
    O135   C67       1.29243  1_565   S
    N127   H38       1.03022      .   S
    N127   H39       1.02921      .   S
    N123   H34       1.03007      .   S
    N123   H35       1.02916      .   S
    C67    O134      1.26570      .   S
    C67    C63       1.49373      .   S
    C52    O128      1.26509      .   S
    C52    C48       1.49575      .   S
    C57    O130      1.26532      .   S
    C57    C53       1.49568      .   S
    C62    O132      1.26521      .   S
    C62    C58       1.49393      .   S
    H12    C54       1.08952      .   S
    H20    C64       1.08940      .   S
    C49    C48       1.40394      .   S
    C49    C88       1.39630  1_655   S
    C59    C58       1.40402      .   S
    C59    C92       1.39583  1_565   S
    C48    C89       1.39954      .   S
    C53    C54       1.40407  1_455   S
    C53    C91       1.39963      .   S
    C63    C64       1.40433  1_545   S
    C63    C95       1.39912      .   S
    H44    C92       1.08787      .   S
    H40    C88       1.08802      .   S
    H47    C95       1.08771      .   S
    H43    C91       1.08759      .   S
