# CIF file generated by openbabel 2.4.90, see http://openbabel.sf.net
data_I
_chemical_name_common 'VESTA_phase_1'
_cell_length_a 13.694
_cell_length_b 14.215
_cell_length_c 15.969
_cell_angle_alpha 90.002
_cell_angle_beta 89.985
_cell_angle_gamma 89.953
_space_group_name_H-M_alt 'P 1'
_space_group_name_Hall 'P 1'
loop_
    _symmetry_equiv_pos_as_xyz
    x,y,z
loop_
    _atom_site_label
    _atom_site_type_symbol
    _atom_site_fract_x
    _atom_site_fract_y
    _atom_site_fract_z
    _atom_site_occupancy
    V0      V    0.46590   0.23430   0.49984   1.000
    V1      V    0.96590   0.23430   0.49985   1.000
    V2      V    0.28380   0.76356   0.99989   1.000
    V3      V    0.78380   0.76356   0.99989   1.000
    V4      V    0.03382   0.73433   0.00047   1.000
    V5      V    0.53382   0.73434   0.00046   1.000
    V6      V    0.21588   0.26362   0.50075   1.000
    V7      V    0.71588   0.26362   0.50075   1.000
    H8      H    0.47557   0.92723   0.18984   1.000
    H9      H    0.97557   0.92729   0.18980   1.000
    H10     H    0.28603   0.96949   0.18064   1.000
    H11     H    0.78601   0.96958   0.18056   1.000
    H12     H    0.46322   0.04314   0.30811   1.000
    H13     H    0.96322   0.04321   0.30807   1.000
    H14     H    0.27369   0.08539   0.29893   1.000
    H15     H    0.77367   0.08548   0.29885   1.000
    H16     H    0.27392   0.07237   0.69136   1.000
    H17     H    0.77395   0.07230   0.69129   1.000
    H18     H    0.46377   0.02858   0.68076   1.000
    H19     H    0.96377   0.02851   0.68071   1.000
    H20     H    0.28647   0.95484   0.80833   1.000
    H21     H    0.78650   0.95477   0.80820   1.000
    H22     H    0.47631   0.91107   0.79776   1.000
    H23     H    0.97631   0.91100   0.79771   1.000
    H24     H    0.02397   0.42646   0.31017   1.000
    H25     H    0.52396   0.42637   0.31010   1.000
    H26     H    0.21341   0.46865   0.31875   1.000
    H27     H    0.71343   0.46876   0.31886   1.000
    H28     H    0.03673   0.54385   0.19313   1.000
    H29     H    0.53673   0.54378   0.19306   1.000
    H30     H    0.22617   0.58605   0.20171   1.000
    H31     H    0.72618   0.58617   0.20182   1.000
    H32     H    0.22588   0.57200   0.81006   1.000
    H33     H    0.72587   0.57190   0.81015   1.000
    H34     H    0.03610   0.52770   0.81980   1.000
    H35     H    0.53611   0.52778   0.81974   1.000
    H36     H    0.21319   0.45607   0.69183   1.000
    H37     H    0.71318   0.45598   0.69192   1.000
    H38     H    0.02340   0.41176   0.70159   1.000
    H39     H    0.52342   0.41184   0.70152   1.000
    C40     C    0.13876   0.87102   0.11010   1.000
    C41     C    0.63875   0.87102   0.11009   1.000
    C42     C    0.13151   0.94150   0.17874   1.000
    C43     C    0.63151   0.94152   0.17872   1.000
    C44     C    0.04016   0.96254   0.21413   1.000
    C45     C    0.54016   0.96251   0.21414   1.000
    C46     C    0.21584   0.98615   0.20906   1.000
    C47     C    0.71582   0.98620   0.20901   1.000
    C48     C    0.11080   0.13827   0.38130   1.000
    C49     C    0.61080   0.13827   0.38129   1.000
    C50     C    0.11779   0.07083   0.31027   1.000
    C51     C    0.61778   0.07084   0.31020   1.000
    C52     C    0.03337   0.02674   0.27949   1.000
    C53     C    0.53337   0.02671   0.27951   1.000
    C54     C    0.20905   0.05036   0.27444   1.000
    C55     C    0.70903   0.05041   0.27439   1.000
    C56     C    0.11096   0.12844   0.61140   1.000
    C57     C    0.61097   0.12844   0.61148   1.000
    C58     C    0.11812   0.05742   0.67966   1.000
    C59     C    0.61813   0.05742   0.67965   1.000
    C60     C    0.20944   0.03641   0.71500   1.000
    C61     C    0.70946   0.03637   0.71506   1.000
    C62     C    0.03392   0.01188   0.70918   1.000
    C63     C    0.53393   0.01192   0.70920   1.000
    C64     C    0.13894   0.85807   0.88009   1.000
    C65     C    0.63895   0.85807   0.88009   1.000
    C66     C    0.13206   0.92624   0.80964   1.000
    C67     C    0.63208   0.92624   0.80960   1.000
    C68     C    0.21635   0.97128   0.77971   1.000
    C69     C    0.71637   0.97124   0.77967   1.000
    C70     C    0.04083   0.94675   0.77381   1.000
    C71     C    0.54084   0.94678   0.77383   1.000
    C72     C    0.36068   0.36955   0.38900   1.000
    C73     C    0.86068   0.36960   0.38912   1.000
    C74     C    0.36796   0.44053   0.32085   1.000
    C75     C    0.86797   0.44061   0.32092   1.000
    C76     C    0.45943   0.46196   0.28592   1.000
    C77     C    0.95944   0.46204   0.28600   1.000
    C78     C    0.28371   0.48560   0.29073   1.000
    C79     C    0.78373   0.48570   0.29083   1.000
    C80     C    0.38906   0.63979   0.12029   1.000
    C81     C    0.88907   0.63983   0.12033   1.000
    C82     C    0.38213   0.57162   0.19075   1.000
    C83     C    0.88214   0.57169   0.19082   1.000
    C84     C    0.46646   0.52703   0.22126   1.000
    C85     C    0.96647   0.52712   0.22134   1.000
    C86     C    0.29074   0.55068   0.22607   1.000
    C87     C    0.79076   0.55078   0.22617   1.000
    C88     C    0.38895   0.62704   0.89012   1.000
    C89     C    0.88895   0.62700   0.89015   1.000
    C90     C    0.38169   0.55671   0.82100   1.000
    C91     C    0.88169   0.55663   0.82146   1.000
    C92     C    0.29034   0.53628   0.78585   1.000
    C93     C    0.79032   0.53618   0.78593   1.000
    C94     C    0.46590   0.51156   0.79123   1.000
    C95     C    0.96589   0.51148   0.79130   1.000
    C96     C    0.36067   0.35977   0.61913   1.000
    C97     C    0.86066   0.35973   0.61917   1.000
    C98     C    0.36764   0.42739   0.68990   1.000
    C99     C    0.86763   0.42731   0.69005   1.000
    C100    C    0.28336   0.47207   0.72052   1.000
    C101    C    0.78334   0.47198   0.72060   1.000
    C102    C    0.45892   0.44734   0.72590   1.000
    C103    C    0.95891   0.44726   0.72597   1.000
    O104    O    0.35460   0.19332   0.49821   1.000
    O105    O    0.85461   0.19331   0.49820   1.000
    O106    O    0.22396   0.85081   0.08200   1.000
    O107    O    0.72396   0.85082   0.08280   1.000
    O108    O    0.02571   0.15675   0.40969   1.000
    O109    O    0.52571   0.15673   0.40970   1.000
    O110    O    0.05874   0.83519   0.08381   1.000
    O111    O    0.55874   0.83519   0.08381   1.000
    O112    O    0.19088   0.17270   0.40891   1.000
    O113    O    0.69088   0.17272   0.40889   1.000
    O114    O    0.39505   0.80461   0.99710   1.000
    O115    O    0.89505   0.80459   0.99713   1.000
    O116    O    0.02594   0.14835   0.58370   1.000
    O117    O    0.52595   0.14835   0.58373   1.000
    O118    O    0.22382   0.83966   0.90890   1.000
    O119    O    0.72383   0.83966   0.90890   1.000
    O120    O    0.19107   0.16486   0.58601   1.000
    O121    O    0.69108   0.16485   0.58000   1.000
    O122    O    0.05875   0.82306   0.90690   1.000
    O123    O    0.55877   0.82307   0.90695   1.000
    O124    O    0.14511   0.69323   0.00310   1.000
    O125    O    0.64511   0.69324   0.00318   1.000
    O126    O    0.27558   0.34944   0.41650   1.000
    O127    O    0.77558   0.34945   0.41651   1.000
    O128    O    0.47396   0.65827   0.09158   1.000
    O129    O    0.97396   0.65829   0.09161   1.000
    O130    O    0.44076   0.33335   0.41498   1.000
    O131    O    0.94077   0.33339   0.41503   1.000
    O132    O    0.30886   0.67475   0.09329   1.000
    O133    O    0.80886   0.67476   0.09331   1.000
    O134    O    0.10452   0.30458   0.50258   1.000
    O135    O    0.60452   0.30459   0.50257   1.000
    O136    O    0.47411   0.64708   0.91741   1.000
    O137    O    0.97411   0.64706   0.91744   1.000
    O138    O    0.27569   0.34147   0.59053   1.000
    O139    O    0.77569   0.34146   0.59054   1.000
    O140    O    0.30887   0.66288   0.91642   1.000
    O141    O    0.80887   0.66287   0.91644   1.000
    O142    O    0.44081   0.32496   0.59180   1.000
    O143    O    0.94081   0.32493   0.59190   1.000
loop_
    _geom_bond_atom_site_label_1
    _geom_bond_atom_site_label_2
    _geom_bond_distance
    _geom_bond_site_symmetry_2
    _ccdc_geom_bond_type
    V5     O125      1.63226      .   S
    V5     O111      1.98599      .   S
    V5     O128      1.98981      .   S
    V5     O123      1.98445  1_554   S
    V5     O136      1.99200  1_554   S
    V5     O114      2.14687  1_554   S
    V4     O124      1.63222      .   S
    V4     O110      1.98598      .   S
    V4     O129      1.98982  1_455   S
    V4     O122      1.98511  1_554   S
    V4     O137      1.99197  1_454   S
    V4     O115      2.14669  1_454   S
    O124   V2        2.14769  1_554   S
    O125   V3        2.14756  1_554   S
    O106   C40       1.28238      .   S
    O106   V2        1.98156  1_554   S
    O107   C41       1.27790      .   S
    O107   V3        1.99018  1_554   S
    O110   C40       1.27962      .   S
    O111   C41       1.27960      .   S
    O128   C80       1.27710      .   S
    O129   C81       1.27710      .   S
    O132   C80       1.28003      .   S
    O132   V2        1.98388  1_554   S
    O133   C81       1.28001      .   S
    O133   V3        1.98401  1_554   S
    C41    C43       1.48823      .   S
    C40    C42       1.48823      .   S
    C80    C82       1.48806      .   S
    C81    C83       1.48806      .   S
    C43    C47       1.40431      .   S
    C43    C45       1.40454      .   S
    C42    C46       1.40428      .   S
    C42    C44       1.40456      .   S
    H11    C47       1.08879      .   S
    H10    C46       1.08877      .   S
    H9     C44       1.08873  1_655   S
    H8     C45       1.08873      .   S
    C82    C84       1.40423      .   S
    C82    C86       1.40465      .   S
    C83    C85       1.40427      .   S
    C83    C87       1.40469      .   S
    H29    C84       1.08878      .   S
    H28    C85       1.08873  1_455   S
    H30    C86       1.08877      .   S
    H31    C87       1.08879      .   S
    C47    C55       1.38976  1_565   S
    C46    C54       1.38978  1_565   S
    C44    C52       1.38948  1_565   S
    C45    C53       1.38960  1_565   S
    C84    C76       1.38971      .   S
    C85    C77       1.38968      .   S
    C86    C78       1.38978      .   S
    C87    C79       1.38976      .   S
    C55    H15       1.08881      .   S
    C55    C51       1.40423      .   S
    C54    H14       1.08882      .   S
    C54    C50       1.40459      .   S
    C52    H13       1.08870  1_455   S
    C52    C50       1.40428      .   S
    C53    H12       1.08870      .   S
    C53    C51       1.40397      .   S
    C76    H25       1.08875      .   S
    C76    C74       1.40472      .   S
    C77    H24       1.08868  1_655   S
    C77    C75       1.40465      .   S
    C78    H26       1.08877      .   S
    C78    C74       1.40427      .   S
    C79    H27       1.08875      .   S
    C79    C75       1.40422      .   S
    C51    C49       1.48876      .   S
    C50    C48       1.48811      .   S
    C74    C72       1.48744      .   S
    C75    C73       1.48837      .   S
    C49    O113      1.27979      .   S
    C49    O109      1.27731      .   S
    C48    O112      1.27981      .   S
    C48    O108      1.27726      .   S
    C72    O130      1.28025      .   S
    C72    O126      1.27782      .   S
    C73    O131      1.27988      .   S
    C73    O127      1.27742      .   S
    O113   V7        1.98485      .   S
    O112   V6        1.98474      .   S
    O108   V1        1.98925  1_455   S
    O109   V0        1.98906      .   S
    O130   V0        1.98413      .   S
    O131   V1        1.98405      .   S
    O126   V6        1.99193      .   S
    O127   V7        1.99192      .   S
    O105   V1        1.63226      .   S
    O105   V7        2.14621      .   S
    O104   V0        1.63225      .   S
    O104   V6        2.14610      .   S
    V0     O135      2.14637      .   S
    V0     O117      1.99061      .   S
    V0     O142      1.98351      .   S
    V1     O134      2.14630  1_655   S
    V1     O116      1.99026  1_655   S
    V1     O143      1.98425      .   S
    V6     O134      1.63219      .   S
    V6     O120      1.98514      .   S
    V6     O138      1.98814      .   S
    V7     O135      1.63220      .   S
    V7     O121      1.92063      .   S
    V7     O139      1.98821      .   S
    O121   C57       1.31327      .   S
    O116   C56       1.27709      .   S
    O117   C57       1.27741      .   S
    O120   C56       1.27927      .   S
    O138   C96       1.27721      .   S
    O139   C97       1.27722      .   S
    O142   C96       1.28007      .   S
    O143   C97       1.27975      .   S
    C56    C58       1.48896      .   S
    C57    C59       1.48790      .   S
    C96    C98       1.48671      .   S
    C97    C99       1.48774      .   S
    C59    C63       1.40411      .   S
    C59    C61       1.40468      .   S
    C58    C62       1.40414      .   S
    C58    C60       1.40403      .   S
    H19    C62       1.08877  1_655   S
    H18    C63       1.08878      .   S
    C98    C100      1.40469      .   S
    C98    C102      1.40513      .   S
    C99    C101      1.40421      .   S
    C99    C103      1.40458      .   S
    H17    C61       1.08877      .   S
    H16    C60       1.08820      .   S
    H36    C100      1.08878      .   S
    H37    C101      1.08876      .   S
    H39    C102      1.08881      .   S
    H38    C103      1.08876  1_455   S
    C62    C70       1.38972  1_545   S
    C63    C71       1.38975  1_545   S
    C60    C68       1.39065  1_545   S
    C61    C69       1.38948  1_545   S
    C100   C92       1.38945      .   S
    C101   C93       1.38945      .   S
    C102   C94       1.38962      .   S
    C103   C95       1.38963      .   S
    C70    H23       1.08869  1_455   S
    C70    C66       1.40460      .   S
    C71    H22       1.08876      .   S
    C71    C67       1.40442      .   S
    C69    H21       1.08832      .   S
    C69    C67       1.40397      .   S
    C68    H20       1.08876      .   S
    C68    C66       1.40414      .   S
    C92    H32       1.08875      .   S
    C92    C90       1.40199      .   S
    C93    H33       1.08876      .   S
    C93    C91       1.40451      .   S
    C94    H35       1.08879      .   S
    C94    C90       1.40209      .   S
    C95    H34       1.08870  1_655   S
    C95    C91       1.40423      .   S
    C67    C65       1.48826      .   S
    C66    C64       1.48781      .   S
    C90    C88       1.49264      .   S
    C91    C89       1.48795      .   S
    C64    O122      1.27956      .   S
    C64    O118      1.27710      .   S
    C65    O123      1.27982      .   S
    C65    O119      1.27711      .   S
    C88    O140      1.27967      .   S
    C88    O136      1.27737      .   S
    C89    O141      1.27973      .   S
    C89    O137      1.27741      .   S
    O119   V3        1.98875      .   S
    O118   V2        1.98882      .   S
    O140   V2        1.98538      .   S
    O141   V3        1.98525      .   S
    O114   V2        1.63233      .   S
    O115   V3        1.63231      .   S
