# CIF file generated by openbabel 2.4.90, see http://openbabel.sf.net
data_I
_chemical_name_common ''
_cell_length_a 12.754
_cell_length_b 12.737
_cell_length_c 25.661
_cell_angle_alpha 90.004
_cell_angle_beta 90.026
_cell_angle_gamma 89.9
_space_group_name_H-M_alt 'P 1'
_space_group_name_Hall 'P 1'
loop_
    _symmetry_equiv_pos_as_xyz
    x,y,z
loop_
    _atom_site_label
    _atom_site_type_symbol
    _atom_site_fract_x
    _atom_site_fract_y
    _atom_site_fract_z
    _atom_site_occupancy
    Zr0     Zr   0.03910   0.93287   0.43804   1.000
    Zr1     Zr   0.46213   0.56831   0.43830   1.000
    Zr2     Zr   0.56874   0.03679   0.43799   1.000
    Zr3     Zr   0.93261   0.46237   0.43817   1.000
    Zr4     Zr   0.46224   0.93301   0.06182   1.000
    Zr5     Zr   0.03855   0.56829   0.06199   1.000
    Zr6     Zr   0.93265   0.03902   0.06188   1.000
    Zr7     Zr   0.56860   0.46224   0.06170   1.000
    Zr8     Zr   0.96086   0.06715   0.56193   1.000
    Zr9     Zr   0.53787   0.43172   0.56168   1.000
    Zr10    Zr   0.43124   0.96324   0.56199   1.000
    Zr11    Zr   0.06738   0.53765   0.56179   1.000
    Zr12    Zr   0.53774   0.06698   0.93817   1.000
    Zr13    Zr   0.96144   0.43168   0.93799   1.000
    Zr14    Zr   0.06735   0.96093   0.93808   1.000
    Zr15    Zr   0.43140   0.53776   0.93820   1.000
    N16     N    0.29998   0.99487   0.93658   1.000
    O17     O    0.22294   0.98222   0.94075   1.000
    O18     O    0.35778   0.97468   0.98392   1.000
    O19     O    0.38408   0.01423   0.94023   1.000
    N20     N    0.57166   0.24894   0.24938   1.000
    O21     O    0.56572   0.16800   0.32937   1.000
    O22     O    0.56487   0.33012   0.16967   1.000
    N23     N    0.42827   0.75105   0.75058   1.000
    O24     O    0.43424   0.83201   0.67060   1.000
    O25     O    0.43505   0.66988   0.83027   1.000
    N26     N    0.24968   0.93058   0.24934   1.000
    O27     O    0.16920   0.93642   0.32934   1.000
    O28     O    0.33054   0.93720   0.16967   1.000
    N29     N    0.24944   0.57027   0.25064   1.000
    O30     O    0.16878   0.56400   0.17069   1.000
    O31     O    0.33040   0.56403   0.33035   1.000
    N32     N    0.30019   0.50455   0.56334   1.000
    O33     O    0.35790   0.52542   0.51607   1.000
    O34     O    0.22308   0.51695   0.55915   1.000
    O35     O    0.38428   0.48510   0.55968   1.000
    N36     N    0.49433   0.80048   0.43691   1.000
    O37     O    0.51420   0.88425   0.44043   1.000
    O38     O    0.47354   0.85846   0.48418   1.000
    O39     O    0.48205   0.72356   0.44105   1.000
    N40     N    0.50521   0.30008   0.93653   1.000
    O41     O    0.52609   0.35789   0.98383   1.000
    O42     O    0.48543   0.38421   0.94021   1.000
    O43     O    0.51759   0.22290   0.94072   1.000
    N44     N    0.75026   0.06945   0.75063   1.000
    O45     O    0.83075   0.06361   0.67063   1.000
    O46     O    0.66942   0.06283   0.83030   1.000
    N47     N    0.70005   0.00485   0.06334   1.000
    O48     O    0.77709   0.01755   0.05918   1.000
    O49     O    0.61593   0.98558   0.05971   1.000
    O50     O    0.64223   0.02515   0.01603   1.000
    N51     N    0.92919   0.25108   0.24992   1.000
    O52     O    0.93557   0.33114   0.32994   1.000
    O53     O    0.93554   0.17078   0.16995   1.000
    N54     N    0.49476   0.69988   0.06342   1.000
    O55     O    0.47389   0.64209   0.01612   1.000
    O56     O    0.48236   0.77708   0.05925   1.000
    O57     O    0.51457   0.61577   0.05974   1.000
    N58     N    0.80084   0.00375   0.43656   1.000
    O59     O    0.85793   0.02431   0.48397   1.000
    O60     O    0.88509   0.98500   0.44021   1.000
    O61     O    0.72388   0.01591   0.44070   1.000
    N62     N    0.19912   0.99627   0.56342   1.000
    O63     O    0.27609   0.98411   0.55928   1.000
    O64     O    0.14204   0.97569   0.51601   1.000
    O65     O    0.11487   0.01502   0.55976   1.000
    N66     N    0.99452   0.19908   0.93616   1.000
    O67     O    0.97434   0.14193   0.98364   1.000
    O68     O    0.98207   0.27616   0.94039   1.000
    O69     O    0.01401   0.11485   0.93993   1.000
    N70     N    0.07076   0.74893   0.75003   1.000
    O71     O    0.06442   0.82921   0.83000   1.000
    O72     O    0.06440   0.66887   0.67001   1.000
    N73     N    0.00536   0.80085   0.06372   1.000
    O74     O    0.98584   0.88509   0.05999   1.000
    O75     O    0.02560   0.85801   0.01628   1.000
    O76     O    0.01784   0.72378   0.05953   1.000
    N77     N    0.69979   0.49544   0.43663   1.000
    O78     O    0.77690   0.48305   0.44082   1.000
    O79     O    0.61570   0.51490   0.44030   1.000
    O80     O    0.64209   0.47459   0.48390   1.000
    N81     N    0.00561   0.70008   0.43655   1.000
    O82     O    0.02584   0.64220   0.48388   1.000
    O83     O    0.98595   0.61596   0.44021   1.000
    O84     O    0.01825   0.77717   0.44072   1.000
    N85     N    0.80088   0.49530   0.06335   1.000
    O86     O    0.85815   0.47453   0.01597   1.000
    O87     O    0.72392   0.48283   0.05918   1.000
    O88     O    0.88496   0.51488   0.05972   1.000
    N89     N    0.19916   0.50447   0.93667   1.000
    O90     O    0.14188   0.52529   0.98404   1.000
    O91     O    0.11507   0.48496   0.94029   1.000
    O92     O    0.27611   0.51698   0.94082   1.000
    N93     N    0.75053   0.42972   0.74934   1.000
    O94     O    0.66959   0.43597   0.66964   1.000
    O95     O    0.83120   0.43600   0.82930   1.000
    N96     N    0.99435   0.29993   0.56338   1.000
    O97     O    0.97414   0.35781   0.51606   1.000
    O98     O    0.01397   0.38406   0.55973   1.000
    O99     O    0.98172   0.22285   0.55922   1.000
    N100    N    0.50564   0.19955   0.56308   1.000
    O101    O    0.52644   0.14157   0.51580   1.000
    O102    O    0.48577   0.11579   0.55955   1.000
    O103    O    0.51793   0.27648   0.55894   1.000
loop_
    _geom_bond_atom_site_label_1
    _geom_bond_atom_site_label_2
    _geom_bond_distance
    _geom_bond_site_symmetry_2
    _ccdc_geom_bond_type
    N16    O17       1.00180      .   S
    Zr14   O17       2.00445      .   S
    N16    O18       1.44356      .   S
    Zr4    O18       2.45915  1_554   S
    N16    O19       1.10494  1_565   S
    Zr12   O19       2.07353      .   S
    N20    O21       2.29837      .   S
    Zr2    O21       3.25025      .   S
    N20    O22       2.29358      .   S
    Zr7    O22       3.24204      .   S
    N23    O24       2.29824      .   S
    Zr10   O24       3.25017      .   S
    N23    O25       2.29293      .   S
    Zr15   O25       3.24135      .   S
    N26    O27       2.29676      .   S
    Zr0    O27       3.24663      .   S
    N26    O28       2.29167      .   S
    Zr4    O28       3.23848      .   S
    N29    O30       2.29625      .   S
    Zr5    O30       3.24610      .   S
    N29    O31       2.29207      .   S
    Zr1    O31       3.23968      .   S
    N32    O33       1.44393      .   S
    Zr1    O33       2.46047      .   S
    N32    O34       1.00154      .   S
    Zr11   O34       2.00394      .   S
    N32    O35       1.10439      .   S
    Zr9    O35       2.07294      .   S
    N36    O37       1.10079      .   S
    Zr2    O37       2.06578  1_545   S
    N36    O38       1.44458      .   S
    Zr10   O38       2.46109      .   S
    N36    O39       0.99814      .   S
    Zr1    O39       1.99531      .   S
    N40    O41       1.44435      .   S
    Zr7    O41       2.46062  1_554   S
    N40    O42       1.10437      .   S
    Zr15   O42       2.07311      .   S
    N40    O43       1.00125      .   S
    Zr12   O43       2.00303      .   S
    N44    O45       2.29675      .   S
    Zr8    O45       3.24667      .   S
    N44    O46       2.29182      .   S
    Zr12   O46       3.23870      .   S
    N47    O48       1.00178      .   S
    Zr6    O48       2.00443      .   S
    N47    O49       1.10485  1_545   S
    Zr4    O49       2.07332      .   S
    N47    O50       1.44346      .   S
    Zr12   O50       2.45904  1_556   S
    N51    O52       2.29406      .   S
    Zr3    O52       3.24167      .   S
    N51    O53       2.29418      .   S
    Zr6    O53       3.24151      .   S
    N54    O55       1.44440      .   S
    Zr15   O55       2.46146  1_556   S
    N54    O56       1.00128      .   S
    Zr4    O56       2.00325      .   S
    N54    O57       1.10436      .   S
    Zr7    O57       2.07294      .   S
    N58    O59       1.44185      .   S
    Zr8    O59       2.45426      .   S
    N58    O60       1.10427  1_545   S
    Zr0    O60       2.07314  1_455   S
    N58    O61       0.99915      .   S
    Zr2    O61       1.99718      .   S
    N62    O63       0.99920      .   S
    Zr10   O63       1.99731      .   S
    N62    O64       1.44193      .   S
    Zr0    O64       2.45435      .   S
    N62    O65       1.10426  1_565   S
    Zr8    O65       2.07312  1_655   S
    N66    O67       1.44278      .   S
    Zr6    O67       2.45665  1_554   S
    N66    O68       1.00019      .   S
    Zr13   O68       1.99873      .   S
    N66    O69       1.10505  1_655   S
    Zr14   O69       2.07450  1_565   S
    N70    O71       2.29419      .   S
    Zr14   O71       3.24147      .   S
    N70    O72       2.29393      .   S
    Zr11   O72       3.24145      .   S
    N73    O74       1.10517  1_455   S
    Zr6    O74       2.07414  1_545   S
    N73    O75       1.44221      .   S
    Zr14   O75       2.45616  1_556   S
    N73    O76       1.00001      .   S
    Zr5    O76       1.99844      .   S
    N77    O78       1.00155      .   S
    Zr3    O78       2.00393      .   S
    N77    O79       1.10438      .   S
    Zr1    O79       2.07293      .   S
    N77    O80       1.44399      .   S
    Zr9    O80       2.46039      .   S
    N81    O82       1.44372      .   S
    Zr11   O82       2.45924      .   S
    N81    O83       1.10483  1_455   S
    Zr3    O83       2.07299      .   S
    N81    O84       1.00104      .   S
    Zr0    O84       2.00253      .   S
    N85    O86       1.44283      .   S
    Zr13   O86       2.45701  1_556   S
    N85    O87       1.00034      .   S
    Zr7    O87       1.99976      .   S
    N85    O88       1.10528      .   S
    Zr5    O88       2.07566  1_455   S
    N89    O90       1.44295      .   S
    Zr5    O90       2.45706  1_554   S
    N89    O91       1.10523      .   S
    Zr13   O91       2.07550  1_655   S
    N89    O92       1.00026      .   S
    Zr15   O92       1.99974      .   S
    N93    O94       2.29203      .   S
    Zr9    O94       3.23973      .   S
    N93    O95       2.29635      .   S
    Zr13   O95       3.24599      .   S
    N96    O97       1.44352      .   S
    Zr3    O97       2.45884      .   S
    N96    O98       1.10471  1_655   S
    Zr11   O98       2.07328      .   S
    N96    O99       1.00098      .   S
    Zr8    O99       2.00245      .   S
    N100   O101      1.44461      .   S
    Zr2    O101      2.46114      .   S
    N100   O102      1.10079      .   S
    Zr10   O102      2.06576  1_565   S
    N100   O103      0.99815      .   S
    Zr9    O103      1.99530      .   S
