# CIF file generated by openbabel 2.4.90, see http://openbabel.sf.net
data_I
_chemical_name_common ''
_cell_length_a 12.754
_cell_length_b 12.737
_cell_length_c 25.661
_cell_angle_alpha 90.004
_cell_angle_beta 90.026
_cell_angle_gamma 89.9
_space_group_name_H-M_alt 'P 1'
_space_group_name_Hall 'P 1'
loop_
    _symmetry_equiv_pos_as_xyz
    x,y,z
loop_
    _atom_site_label
    _atom_site_type_symbol
    _atom_site_fract_x
    _atom_site_fract_y
    _atom_site_fract_z
    _atom_site_occupancy
    C0      C    0.03910   0.93287   0.43804   1.000
    C1      C    0.46213   0.56831   0.43830   1.000
    C2      C    0.56874   0.03679   0.43799   1.000
    C3      C    0.93261   0.46237   0.43817   1.000
    C4      C    0.46224   0.93301   0.06182   1.000
    C5      C    0.03855   0.56829   0.06199   1.000
    C6      C    0.93265   0.03902   0.06188   1.000
    C7      C    0.56860   0.46224   0.06170   1.000
    C8      C    0.96086   0.06715   0.56193   1.000
    C9      C    0.53787   0.43172   0.56168   1.000
    C10     C    0.43124   0.96324   0.56199   1.000
    C11     C    0.06738   0.53765   0.56179   1.000
    C12     C    0.53774   0.06698   0.93817   1.000
    C13     C    0.96144   0.43168   0.93799   1.000
    C14     C    0.06735   0.96093   0.93808   1.000
    C15     C    0.43140   0.53776   0.93820   1.000
    C16     C    0.27953   0.94656   0.46568   1.000
    C17     C    0.05793   0.92991   0.23195   1.000
    C18     C    0.18514   0.93423   0.15803   1.000
    C19     C    0.26400   0.02166   0.64937   1.000
    C20     C    0.12559   0.04607   0.64895   1.000
    C21     C    0.22087   0.55714   0.46570   1.000
    C22     C    0.44139   0.57137   0.23315   1.000
    C23     C    0.31400   0.56769   0.15922   1.000
    C24     C    0.23473   0.47860   0.64910   1.000
    C25     C    0.37298   0.45306   0.64874   1.000
    C26     C    0.55950   0.27861   0.46562   1.000
    C27     C    0.57202   0.05694   0.23198   1.000
    C28     C    0.56773   0.18441   0.15800   1.000
    C29     C    0.47948   0.26527   0.64879   1.000
    C30     C    0.45294   0.12712   0.64840   1.000
    C31     C    0.94169   0.22087   0.46572   1.000
    C32     C    0.92773   0.44351   0.23339   1.000
    C33     C    0.93123   0.31749   0.15885   1.000
    C34     C    0.02018   0.23422   0.64924   1.000
    C35     C    0.04595   0.37246   0.64876   1.000
    C36     C    0.22088   0.94296   0.03428   1.000
    C37     C    0.44165   0.92857   0.26684   1.000
    C38     C    0.31440   0.93142   0.34076   1.000
    C39     C    0.23450   0.01970   0.85070   1.000
    C40     C    0.37255   0.04582   0.85114   1.000
    C41     C    0.27899   0.55723   0.03410   1.000
    C42     C    0.05773   0.57186   0.26803   1.000
    C43     C    0.18507   0.56817   0.34196   1.000
    C44     C    0.26412   0.47907   0.85083   1.000
    C45     C    0.12612   0.45262   0.85131   1.000
    C46     C    0.94290   0.27910   0.03378   1.000
    C47     C    0.92759   0.05867   0.26644   1.000
    C48     C    0.93100   0.18466   0.34097   1.000
    C49     C    0.02010   0.26418   0.85024   1.000
    C50     C    0.04556   0.12576   0.85085   1.000
    C51     C    0.55933   0.22088   0.03398   1.000
    C52     C    0.57409   0.44109   0.26687   1.000
    C53     C    0.57135   0.31366   0.34081   1.000
    C54     C    0.47893   0.23448   0.85080   1.000
    C55     C    0.45264   0.37276   0.85125   1.000
    C56     C    0.72042   0.05338   0.53430   1.000
    C57     C    0.94201   0.07019   0.76802   1.000
    C58     C    0.81481   0.06587   0.84194   1.000
    C59     C    0.73596   0.97840   0.35061   1.000
    C60     C    0.87437   0.95400   0.35102   1.000
    C61     C    0.77913   0.44283   0.53426   1.000
    C62     C    0.55858   0.42873   0.76685   1.000
    C63     C    0.68597   0.43241   0.84078   1.000
    C64     C    0.76523   0.52140   0.35087   1.000
    C65     C    0.62698   0.54695   0.35124   1.000
    C66     C    0.44050   0.72143   0.53437   1.000
    C67     C    0.42789   0.94305   0.76800   1.000
    C68     C    0.43212   0.81558   0.84190   1.000
    C69     C    0.52050   0.73475   0.35119   1.000
    C70     C    0.54703   0.87290   0.35157   1.000
    C71     C    0.05838   0.77911   0.53421   1.000
    C72     C    0.07227   0.55650   0.76656   1.000
    C73     C    0.06876   0.68251   0.84110   1.000
    C74     C    0.97974   0.76581   0.35071   1.000
    C75     C    0.95397   0.62757   0.35119   1.000
    C76     C    0.77911   0.05685   0.96566   1.000
    C77     C    0.55829   0.07139   0.73314   1.000
    C78     C    0.68552   0.06855   0.65921   1.000
    C79     C    0.76555   0.97997   0.14923   1.000
    C80     C    0.62749   0.95389   0.14879   1.000
    C81     C    0.72107   0.44237   0.96592   1.000
    C82     C    0.94225   0.42797   0.73190   1.000
    C83     C    0.81491   0.43166   0.65804   1.000
    C84     C    0.73591   0.52075   0.14920   1.000
    C85     C    0.87391   0.54726   0.14871   1.000
    C86     C    0.05709   0.72085   0.96617   1.000
    C87     C    0.07229   0.94134   0.73352   1.000
    C88     C    0.06889   0.81536   0.65898   1.000
    C89     C    0.97977   0.73573   0.14970   1.000
    C90     C    0.95433   0.87415   0.14909   1.000
    C91     C    0.44055   0.77910   0.96602   1.000
    C92     C    0.42586   0.55890   0.73310   1.000
    C93     C    0.42863   0.68633   0.65910   1.000
    C94     C    0.52103   0.76547   0.14919   1.000
    C95     C    0.54737   0.62720   0.14873   1.000
    C96     C    0.18964   0.00323   0.57898   1.000
    C97     C    0.23381   0.96581   0.50004   1.000
    C98     C    0.17822   0.93068   0.29092   1.000
    C99     C    0.14199   0.93045   0.23928   1.000
    C100    C    0.21292   0.93257   0.19814   1.000
    C101    C    0.10137   0.92943   0.33492   1.000
    C102    C    0.30941   0.49685   0.57884   1.000
    C103    C    0.26614   0.53672   0.50007   1.000
    C104    C    0.32115   0.56969   0.29210   1.000
    C105    C    0.35732   0.57060   0.24049   1.000
    C106    C    0.28630   0.56888   0.19933   1.000
    C107    C    0.39762   0.57067   0.33630   1.000
    C108    C    0.49774   0.19037   0.57856   1.000
    C109    C    0.53857   0.23336   0.49989   1.000
    C110    C    0.57169   0.17730   0.29098   1.000
    C111    C    0.57169   0.14112   0.23933   1.000
    C112    C    0.56958   0.21219   0.19818   1.000
    C113    C    0.57270   0.10026   0.33499   1.000
    C114    C    0.00191   0.30912   0.57890   1.000
    C115    C    0.96217   0.26606   0.50009   1.000
    C116    C    0.92951   0.32194   0.29179   1.000
    C117    C    0.92853   0.35920   0.24033   1.000
    C118    C    0.93017   0.28893   0.19883   1.000
    C119    C    0.92902   0.39790   0.33623   1.000
    C120    C    0.30917   0.00244   0.92107   1.000
    C121    C    0.26606   0.96317   0.99990   1.000
    C122    C    0.32131   0.93152   0.20785   1.000
    C123    C    0.35757   0.92968   0.25948   1.000
    C124    C    0.28662   0.93099   0.30065   1.000
    C125    C    0.39774   0.93092   0.16368   1.000
    C126    C    0.18979   0.49675   0.92119   1.000
    C127    C    0.23349   0.53671   0.99988   1.000
    C128    C    0.17792   0.56971   0.20906   1.000
    C129    C    0.14178   0.57090   0.26069   1.000
    C130    C    0.21277   0.56912   0.30185   1.000
    C131    C    0.10100   0.57078   0.16505   1.000
    C132    C    0.00184   0.18968   0.92063   1.000
    C133    C    0.96294   0.23356   0.99945   1.000
    C134    C    0.92963   0.18023   0.20804   1.000
    C135    C    0.92841   0.14299   0.25950   1.000
    C136    C    0.93011   0.21324   0.30100   1.000
    C137    C    0.92909   0.10423   0.16363   1.000
    C138    C    0.49716   0.30929   0.92107   1.000
    C139    C    0.53830   0.26614   0.99970   1.000
    C140    C    0.57080   0.32073   0.20788   1.000
    C141    C    0.57286   0.35692   0.25953   1.000
    C142    C    0.57160   0.28584   0.30070   1.000
    C143    C    0.57124   0.39739   0.16372   1.000
    C144    C    0.81033   0.99681   0.42100   1.000
    C145    C    0.76615   0.03415   0.49995   1.000
    C146    C    0.82171   0.06935   0.70905   1.000
    C147    C    0.85795   0.06962   0.76069   1.000
    C148    C    0.78703   0.06750   0.80183   1.000
    C149    C    0.89857   0.07060   0.66500   1.000
    C150    C    0.69057   0.50315   0.42110   1.000
    C151    C    0.73385   0.46326   0.49990   1.000
    C152    C    0.67883   0.43027   0.70787   1.000
    C153    C    0.64265   0.42946   0.75950   1.000
    C154    C    0.71367   0.43116   0.80060   1.000
    C155    C    0.60236   0.42933   0.66369   1.000
    C156    C    0.50223   0.80966   0.42143   1.000
    C157    C    0.46142   0.76667   0.50010   1.000
    C158    C    0.42826   0.82269   0.70900   1.000
    C159    C    0.42822   0.85887   0.76065   1.000
    C160    C    0.43031   0.78779   0.80180   1.000
    C161    C    0.42726   0.89974   0.66498   1.000
    C162    C    0.99804   0.69090   0.42104   1.000
    C163    C    0.03786   0.73394   0.49980   1.000
    C164    C    0.07041   0.67807   0.70816   1.000
    C165    C    0.07145   0.64081   0.75962   1.000
    C166    C    0.06979   0.71107   0.80110   1.000
    C167    C    0.07092   0.60211   0.66373   1.000
    C168    C    0.69088   0.99723   0.07886   1.000
    C169    C    0.73394   0.03664   0.00000   1.000
    C170    C    0.67863   0.06851   0.79212   1.000
    C171    C    0.64236   0.07031   0.74049   1.000
    C172    C    0.71332   0.06901   0.69930   1.000
    C173    C    0.60222   0.06910   0.83630   1.000
    C174    C    0.81025   0.50304   0.07884   1.000
    C175    C    0.76656   0.46298   0.00000   1.000
    C176    C    0.82205   0.43027   0.79093   1.000
    C177    C    0.85819   0.42899   0.73930   1.000
    C178    C    0.78720   0.43079   0.69815   1.000
    C179    C    0.89898   0.42922   0.83495   1.000
    C180    C    0.99806   0.81024   0.07930   1.000
    C181    C    0.03703   0.76638   0.00000   1.000
    C182    C    0.07033   0.81978   0.79190   1.000
    C183    C    0.07149   0.85703   0.74040   1.000
    C184    C    0.06982   0.78678   0.69895   1.000
    C185    C    0.07087   0.89577   0.83633   1.000
    C186    C    0.50282   0.69068   0.07891   1.000
    C187    C    0.46162   0.73383   0.00000   1.000
    C188    C    0.42911   0.67926   0.79209   1.000
    C189    C    0.42708   0.64307   0.74044   1.000
    C190    C    0.42835   0.71415   0.69927   1.000
    C191    C    0.42867   0.60259   0.83625   1.000
    C192    C    0.10039   0.00038   0.55028   1.000
    C193    C    0.13080   0.97736   0.49914   1.000
    C194    C    0.27486   0.98064   0.54828   1.000
    C195    C    0.19348   0.02474   0.63010   1.000
    C196    C    0.39889   0.49960   0.55036   1.000
    C197    C    0.36909   0.52425   0.49932   1.000
    C198    C    0.22456   0.52105   0.54814   1.000
    C199    C    0.30505   0.47369   0.62979   1.000
    C200    C    0.50056   0.10079   0.55006   1.000
    C201    C    0.52572   0.13039   0.49906   1.000
    C202    C    0.52257   0.27507   0.54792   1.000
    C203    C    0.47370   0.19499   0.62938   1.000
    C204    C    0.99979   0.39871   0.55036   1.000
    C205    C    0.97527   0.36901   0.49930   1.000
    C206    C    0.97730   0.22436   0.54820   1.000
    C207    C    0.02488   0.30459   0.62987   1.000
    C208    C    0.39863   0.00019   0.94960   1.000
    C209    C    0.36892   0.97598   0.00071   1.000
    C210    C    0.22444   0.97821   0.95176   1.000
    C211    C    0.30468   0.02537   0.87009   1.000
    C212    C    0.10052   0.49924   0.94985   1.000
    C213    C    0.13065   0.52393   0.00085   1.000
    C214    C    0.27474   0.52123   0.95173   1.000
    C215    C    0.19400   0.47344   0.87026   1.000
    C216    C    0.99964   0.10030   0.94931   1.000
    C217    C    0.97566   0.13055   0.00037   1.000
    C218    C    0.97782   0.27481   0.95124   1.000
    C219    C    0.02424   0.19375   0.86961   1.000
    C220    C    0.49989   0.39890   0.94957   1.000
    C221    C    0.52536   0.36916   0.00054   1.000
    C222    C    0.52221   0.22443   0.95166   1.000
    C223    C    0.47305   0.30472   0.87023   1.000
    C224    C    0.89958   0.99963   0.44970   1.000
    C225    C    0.86916   0.02261   0.50084   1.000
    C226    C    0.72511   0.01937   0.45171   1.000
    C227    C    0.80649   0.97537   0.36987   1.000
    C228    C    0.60110   0.50042   0.44963   1.000
    C229    C    0.63091   0.47575   0.50067   1.000
    C230    C    0.77543   0.47893   0.45183   1.000
    C231    C    0.69492   0.52630   0.37019   1.000
    C232    C    0.49940   0.89925   0.44992   1.000
    C233    C    0.47426   0.86964   0.50092   1.000
    C234    C    0.47742   0.72496   0.45207   1.000
    C235    C    0.52626   0.80504   0.37060   1.000
    C236    C    0.00000   0.60130   0.44957   1.000
    C237    C    0.02477   0.63099   0.50063   1.000
    C238    C    0.02268   0.77565   0.45174   1.000
    C239    C    0.97501   0.69545   0.37008   1.000
    C240    C    0.60140   0.99962   0.05033   1.000
    C241    C    0.63107   0.02390   0.99925   1.000
    C242    C    0.77559   0.02148   0.04817   1.000
    C243    C    0.69541   0.97404   0.12981   1.000
    C244    C    0.89951   0.50061   0.05018   1.000
    C245    C    0.86939   0.47584   0.99918   1.000
    C246    C    0.72531   0.47848   0.04831   1.000
    C247    C    0.80605   0.52634   0.12978   1.000
    C248    C    0.00000   0.89963   0.05065   1.000
    C249    C    0.02434   0.86939   0.99959   1.000
    C250    C    0.02210   0.72511   0.04870   1.000
    C251    C    0.97554   0.80614   0.13032   1.000
    C252    C    0.50015   0.60108   0.05040   1.000
    C253    C    0.47464   0.63083   0.99944   1.000
    C254    C    0.47770   0.77553   0.04834   1.000
    C255    C    0.52692   0.69524   0.12976   1.000
    C256    C    0.13832   0.95165   0.38063   1.000
    C257    C    0.00635   0.90612   0.32681   1.000
    C258    C    0.36057   0.54728   0.38181   1.000
    C259    C    0.49260   0.59508   0.32870   1.000
    C260    C    0.55081   0.13735   0.38073   1.000
    C261    C    0.59547   0.00491   0.32680   1.000
    C262    C    0.95131   0.36003   0.38174   1.000
    C263    C    0.90628   0.49352   0.32870   1.000
    C264    C    0.36056   0.95463   0.11820   1.000
    C265    C    0.49282   0.90653   0.17125   1.000
    C266    C    0.13769   0.54715   0.11947   1.000
    C267    C    0.00618   0.59538   0.17306   1.000
    C268    C    0.95112   0.14196   0.11807   1.000
    C269    C    0.90636   0.00871   0.17115   1.000
    C270    C    0.54757   0.36037   0.11821   1.000
    C271    C    0.59541   0.49254   0.17135   1.000
    C272    C    0.86163   0.04839   0.61934   1.000
    C273    C    0.99358   0.09394   0.67310   1.000
    C274    C    0.63943   0.45274   0.61818   1.000
    C275    C    0.50738   0.40495   0.67129   1.000
    C276    C    0.44918   0.86267   0.61925   1.000
    C277    C    0.40451   0.99510   0.67313   1.000
    C278    C    0.04869   0.63998   0.61821   1.000
    C279    C    0.09370   0.50651   0.67120   1.000
    C280    C    0.63941   0.04542   0.88178   1.000
    C281    C    0.50713   0.09348   0.82874   1.000
    C282    C    0.86230   0.45288   0.88053   1.000
    C283    C    0.99380   0.40463   0.82694   1.000
    C284    C    0.04882   0.85804   0.88188   1.000
    C285    C    0.09360   0.99129   0.82882   1.000
    C286    C    0.45226   0.63964   0.88170   1.000
    C287    C    0.40456   0.50743   0.82863   1.000
    O288    O    0.02957   0.74575   0.02435   1.000
    O289    O    0.04706   0.74362   0.98308   1.000
    O290    O    0.03069   0.81789   0.99979   1.000
    O291    O    0.74593   0.47073   0.02415   1.000
    O292    O    0.74381   0.45267   0.98296   1.000
    O293    O    0.81797   0.46941   0.99959   1.000
    O294    O    0.46966   0.75468   0.02417   1.000
    O295    O    0.45109   0.75647   0.98301   1.000
    O296    O    0.46813   0.68233   0.99972   1.000
    O297    O    0.75477   0.02906   0.02408   1.000
    O298    O    0.75652   0.04675   0.98283   1.000
    O299    O    0.68251   0.03027   0.99962   1.000
    O300    O    0.95415   0.08479   0.03112   1.000
    O301    O    0.98765   0.11543   0.97484   1.000
    O302    O    0.96930   0.18205   0.99991   1.000
    O303    O    0.54698   0.41570   0.03112   1.000
    O304    O    0.51262   0.38403   0.97505   1.000
    O305    O    0.53183   0.31765   0.00012   1.000
    O306    O    0.41558   0.95449   0.03126   1.000
    O307    O    0.38377   0.98808   0.97515   1.000
    O308    O    0.31749   0.96957   0.00030   1.000
    O309    O    0.08460   0.54611   0.03142   1.000
    O310    O    0.11558   0.51159   0.97535   1.000
    O311    O    0.18207   0.53032   0.00036   1.000
    O312    O    0.95292   0.25633   0.01661   1.000
    O313    O    0.54882   0.24351   0.01684   1.000
    O314    O    0.25624   0.54697   0.01699   1.000
    O315    O    0.24347   0.95306   0.01709   1.000
    O316    O    0.85412   0.03025   0.05502   1.000
    O317    O    0.73324   0.00935   0.06352   1.000
    O318    O    0.64695   0.47036   0.05500   1.000
    O319    O    0.76778   0.49076   0.06357   1.000
    O320    O    0.46997   0.85427   0.05508   1.000
    O321    O    0.49026   0.73310   0.06362   1.000
    O322    O    0.03032   0.64671   0.05534   1.000
    O323    O    0.01008   0.76768   0.06400   1.000
    O324    O    0.96903   0.53445   0.05608   1.000
    O325    O    0.85488   0.50183   0.06451   1.000
    O326    O    0.88445   0.48823   0.02468   1.000
    O327    O    0.53182   0.96631   0.05607   1.000
    O328    O    0.64614   0.99842   0.06459   1.000
    O329    O    0.61624   0.01176   0.02479   1.000
    O330    O    0.53438   0.53166   0.05605   1.000
    O331    O    0.50149   0.64588   0.06465   1.000
    O332    O    0.48740   0.61595   0.02492   1.000
    O333    O    0.96632   0.96932   0.05626   1.000
    O334    O    0.99903   0.85493   0.06497   1.000
    O335    O    0.01217   0.88451   0.02512   1.000
    O336    O    0.55809   0.41130   0.08995   1.000
    O337    O    0.41140   0.94382   0.09001   1.000
    O338    O    0.94188   0.09049   0.08997   1.000
    O339    O    0.08812   0.55772   0.09073   1.000
    O340    O    0.80815   0.51469   0.10431   1.000
    O341    O    0.69315   0.98563   0.10433   1.000
    O342    O    0.51487   0.69296   0.10433   1.000
    O343    O    0.98680   0.80819   0.10481   1.000
    O344    O    0.94010   0.12309   0.14085   1.000
    O345    O    0.37915   0.94278   0.14094   1.000
    O346    O    0.55941   0.37888   0.14096   1.000
    O347    O    0.11934   0.55897   0.14226   1.000
    O348    O    0.53715   0.66122   0.13924   1.000
    O349    O    0.52398   0.73035   0.13947   1.000
    O350    O    0.83998   0.53680   0.13924   1.000
    O351    O    0.77098   0.52354   0.13949   1.000
    O352    O    0.66145   0.96396   0.13930   1.000
    O353    O    0.73048   0.97701   0.13952   1.000
    O354    O    0.96494   0.84015   0.13970   1.000
    O355    O    0.97766   0.77094   0.14001   1.000
    O356    O    0.56866   0.19830   0.17809   1.000
    O357    O    0.19903   0.93340   0.17808   1.000
    O358    O    0.93070   0.30321   0.17884   1.000
    O359    O    0.30015   0.56828   0.17927   1.000
    O360    O    0.91773   0.05647   0.16739   1.000
    O361    O    0.92936   0.14223   0.18583   1.000
    O362    O    0.44528   0.91873   0.16746   1.000
    O363    O    0.35953   0.93122   0.18576   1.000
    O364    O    0.58333   0.44497   0.16753   1.000
    O365    O    0.57102   0.35906   0.18580   1.000
    O366    O    0.05359   0.58308   0.16905   1.000
    O367    O    0.13946   0.57025   0.18705   1.000
    O368    O    0.26711   0.93205   0.20299   1.000
    O369    O    0.17746   0.93151   0.21871   1.000
    O370    O    0.57019   0.26646   0.20303   1.000
    O371    O    0.57064   0.17665   0.21875   1.000
    O372    O    0.92990   0.23458   0.20344   1.000
    O373    O    0.92935   0.32407   0.21958   1.000
    O374    O    0.23211   0.56929   0.20419   1.000
    O375    O    0.32181   0.56974   0.21991   1.000
    O376    O    0.33944   0.93060   0.23366   1.000
    O377    O    0.57183   0.33882   0.23370   1.000
    O378    O    0.92902   0.16161   0.23377   1.000
    O379    O    0.15985   0.57030   0.23487   1.000
    O380    O    0.09996   0.93018   0.23561   1.000
    O381    O    0.57186   0.09903   0.23565   1.000
    O382    O    0.39936   0.57099   0.23682   1.000
    O383    O    0.92813   0.40136   0.23686   1.000
    O384    O    0.16011   0.93056   0.26510   1.000
    O385    O    0.57169   0.15921   0.26515   1.000
    O386    O    0.92902   0.34057   0.26606   1.000
    O387    O    0.33924   0.57015   0.26630   1.000
    O388    O    0.39961   0.92913   0.26316   1.000
    O389    O    0.32210   0.93034   0.28006   1.000
    O390    O    0.92800   0.10083   0.26297   1.000
    O391    O    0.92926   0.17811   0.28025   1.000
    O392    O    0.57347   0.39901   0.26320   1.000
    O393    O    0.57223   0.32138   0.28011   1.000
    O394    O    0.09975   0.57138   0.26436   1.000
    O395    O    0.17728   0.57001   0.28127   1.000
    O396    O    0.23242   0.93084   0.29578   1.000
    O397    O    0.13979   0.93006   0.31292   1.000
    O398    O    0.57164   0.23157   0.29584   1.000
    O399    O    0.57219   0.13878   0.31298   1.000
    O400    O    0.92981   0.26759   0.29639   1.000
    O401    O    0.92927   0.35992   0.31401   1.000
    O402    O    0.26696   0.56941   0.29697   1.000
    O403    O    0.35939   0.57018   0.31420   1.000
    O404    O    0.30051   0.93120   0.32070   1.000
    O405    O    0.57147   0.29975   0.32075   1.000
    O406    O    0.93056   0.19895   0.32098   1.000
    O407    O    0.19892   0.56865   0.32190   1.000
    O408    O    0.58408   0.05258   0.33089   1.000
    O409    O    0.05386   0.91777   0.33087   1.000
    O410    O    0.44511   0.58287   0.33250   1.000
    O411    O    0.91765   0.44571   0.33246   1.000
    O412    O    0.11984   0.94054   0.35778   1.000
    O413    O    0.56175   0.11880   0.35786   1.000
    O414    O    0.94016   0.37897   0.35898   1.000
    O415    O    0.37910   0.55898   0.35905   1.000
    O416    O    0.77123   0.97688   0.36024   1.000
    O417    O    0.97738   0.73063   0.36039   1.000
    O418    O    0.73007   0.52385   0.36053   1.000
    O419    O    0.84043   0.96468   0.36044   1.000
    O420    O    0.96449   0.66151   0.36063   1.000
    O421    O    0.52338   0.76989   0.36089   1.000
    O422    O    0.66095   0.53663   0.36071   1.000
    O423    O    0.53665   0.83897   0.36108   1.000
    O424    O    0.80841   0.98609   0.39543   1.000
    O425    O    0.98653   0.69317   0.39556   1.000
    O426    O    0.69274   0.51473   0.39564   1.000
    O427    O    0.51424   0.80735   0.39602   1.000
    O428    O    0.08871   0.94226   0.40933   1.000
    O429    O    0.55977   0.08707   0.40936   1.000
    O430    O    0.94196   0.41120   0.40996   1.000
    O431    O    0.41135   0.55780   0.41005   1.000
    O432    O    0.85495   0.99822   0.43535   1.000
    O433    O    0.76772   0.00809   0.43635   1.000
    O434    O    0.99902   0.64610   0.43530   1.000
    O435    O    0.01036   0.73328   0.43639   1.000
    O436    O    0.64583   0.50178   0.43536   1.000
    O437    O    0.73300   0.49104   0.43646   1.000
    O438    O    0.50081   0.85445   0.43567   1.000
    O439    O    0.48982   0.76731   0.43675   1.000
    O440    O    0.53407   0.96802   0.44395   1.000
    O441    O    0.64692   0.02808   0.44485   1.000
    O442    O    0.54723   0.08359   0.46852   1.000
    O443    O    0.96934   0.96625   0.44387   1.000
    O444    O    0.03089   0.85426   0.44489   1.000
    O445    O    0.08495   0.95512   0.46859   1.000
    O446    O    0.96630   0.53184   0.44387   1.000
    O447    O    0.85402   0.47065   0.44500   1.000
    O448    O    0.95394   0.41569   0.46873   1.000
    O449    O    0.53161   0.53437   0.44396   1.000
    O450    O    0.46977   0.64664   0.44518   1.000
    O451    O    0.41561   0.54628   0.46881   1.000
    O452    O    0.01238   0.61614   0.47510   1.000
    O453    O    0.61601   0.48809   0.47515   1.000
    O454    O    0.88437   0.01112   0.47527   1.000
    O455    O    0.48683   0.88445   0.47542   1.000
    O456    O    0.74563   0.02676   0.47583   1.000
    O457    O    0.03027   0.75479   0.47577   1.000
    O458    O    0.75464   0.47109   0.47586   1.000
    O459    O    0.46942   0.74582   0.47608   1.000
    O460    O    0.54903   0.25598   0.48275   1.000
    O461    O    0.25667   0.95618   0.48286   1.000
    O462    O    0.24351   0.54693   0.48288   1.000
    O463    O    0.95193   0.24347   0.48290   1.000
    O464    O    0.53214   0.18188   0.49947   1.000
    O465    O    0.51314   0.11559   0.52456   1.000
    O466    O    0.18230   0.97159   0.49959   1.000
    O467    O    0.11559   0.98887   0.52471   1.000
    O468    O    0.96872   0.31754   0.49969   1.000
    O469    O    0.98753   0.38386   0.52483   1.000
    O470    O    0.31762   0.53049   0.49969   1.000
    O471    O    0.38399   0.51192   0.52484   1.000
    O472    O    0.03131   0.68246   0.50021   1.000
    O473    O    0.04812   0.75653   0.51700   1.000
    O474    O    0.53057   0.25422   0.52390   1.000
    O475    O    0.68238   0.46951   0.50028   1.000
    O476    O    0.75649   0.45304   0.51708   1.000
    O477    O    0.81765   0.02838   0.50039   1.000
    O478    O    0.74328   0.04377   0.51712   1.000
    O479    O    0.25434   0.97323   0.52416   1.000
    O480    O    0.24535   0.52888   0.52410   1.000
    O481    O    0.96974   0.24521   0.52414   1.000
    O482    O    0.46784   0.81816   0.50051   1.000
    O483    O    0.45096   0.74405   0.51723   1.000
    O484    O    0.04607   0.58432   0.53121   1.000
    O485    O    0.58439   0.45374   0.53117   1.000
    O486    O    0.91501   0.04488   0.53138   1.000
    O487    O    0.45275   0.91644   0.53145   1.000
    O488    O    0.53022   0.35340   0.55480   1.000
    O489    O    0.51016   0.23272   0.56324   1.000
    O490    O    0.14597   0.52935   0.55496   1.000
    O491    O    0.26698   0.50895   0.56349   1.000
    O492    O    0.96908   0.14576   0.55506   1.000
    O493    O    0.98961   0.26674   0.56355   1.000
    O494    O    0.35305   0.97194   0.55513   1.000
    O495    O    0.23225   0.99193   0.56363   1.000
    O496    O    0.46590   0.03202   0.55602   1.000
    O497    O    0.49915   0.14558   0.56431   1.000
    O498    O    0.03063   0.03377   0.55610   1.000
    O499    O    0.14501   0.00180   0.56463   1.000
    O500    O    0.03359   0.46818   0.55607   1.000
    O501    O    0.00085   0.35391   0.56463   1.000
    O502    O    0.46838   0.46566   0.55602   1.000
    O503    O    0.35415   0.49823   0.56460   1.000
    O504    O    0.58865   0.44223   0.58993   1.000
    O505    O    0.05803   0.58881   0.59000   1.000
    O506    O    0.91125   0.05777   0.59063   1.000
    O507    O    0.44021   0.91296   0.59062   1.000
    O508    O    0.48572   0.19268   0.60397   1.000
    O509    O    0.30723   0.48527   0.60431   1.000
    O510    O    0.01339   0.30685   0.60438   1.000
    O511    O    0.19156   0.01398   0.60454   1.000
    O512    O    0.62089   0.44103   0.64093   1.000
    O513    O    0.05980   0.62105   0.64097   1.000
    O514    O    0.43822   0.88121   0.64211   1.000
    O515    O    0.88010   0.05949   0.64217   1.000
    O516    O    0.46332   0.16106   0.63889   1.000
    O517    O    0.47659   0.23013   0.63909   1.000
    O518    O    0.33901   0.46337   0.63926   1.000
    O519    O    0.26989   0.47614   0.63944   1.000
    O520    O    0.03541   0.33852   0.63931   1.000
    O521    O    0.02253   0.26941   0.63956   1.000
    O522    O    0.15954   0.03540   0.63952   1.000
    O523    O    0.22874   0.02320   0.63973   1.000
    O524    O    0.80106   0.43123   0.67810   1.000
    O525    O    0.06935   0.80107   0.67896   1.000
    O526    O    0.42849   0.70024   0.67919   1.000
    O527    O    0.69942   0.06878   0.67925   1.000
    O528    O    0.55487   0.41714   0.66749   1.000
    O529    O    0.64059   0.42980   0.68578   1.000
    O530    O    0.08231   0.55431   0.66746   1.000
    O531    O    0.07067   0.64009   0.68594   1.000
    O532    O    0.41589   0.94742   0.66905   1.000
    O533    O    0.42776   0.86122   0.68699   1.000
    O534    O    0.94607   0.08227   0.66905   1.000
    O535    O    0.86014   0.06997   0.68702   1.000
    O536    O    0.73302   0.43053   0.70301   1.000
    O537    O    0.82270   0.42989   0.71872   1.000
    O538    O    0.07011   0.73243   0.70355   1.000
    O539    O    0.07065   0.82190   0.71967   1.000
    O540    O    0.42830   0.76842   0.70413   1.000
    O541    O    0.42772   0.67861   0.71985   1.000
    O542    O    0.76751   0.06918   0.70417   1.000
    O543    O    0.67784   0.06966   0.71989   1.000
    O544    O    0.66074   0.42987   0.73368   1.000
    O545    O    0.07093   0.65944   0.73389   1.000
    O546    O    0.42824   0.84078   0.73482   1.000
    O547    O    0.83983   0.06949   0.73487   1.000
    O548    O    0.90022   0.42848   0.73560   1.000
    O549    O    0.42647   0.60098   0.73677   1.000
    O550    O    0.60032   0.07085   0.73681   1.000
    O551    O    0.07189   0.89919   0.73696   1.000
    O552    O    0.84012   0.42963   0.76511   1.000
    O553    O    0.07091   0.83840   0.76615   1.000
    O554    O    0.42809   0.66116   0.76626   1.000
    O555    O    0.66050   0.06941   0.76631   1.000
    O556    O    0.60062   0.42910   0.76317   1.000
    O557    O    0.67816   0.43031   0.78005   1.000
    O558    O    0.07186   0.59865   0.76309   1.000
    O559    O    0.07062   0.67594   0.78036   1.000
    O560    O    0.42805   0.90096   0.76433   1.000
    O561    O    0.42926   0.82333   0.78123   1.000
    O562    O    0.89998   0.06991   0.76435   1.000
    O563    O    0.82249   0.06856   0.78126   1.000
    O564    O    0.76786   0.43071   0.79576   1.000
    O565    O    0.86051   0.42974   0.81294   1.000
    O566    O    0.07006   0.76542   0.79650   1.000
    O567    O    0.07060   0.85777   0.81411   1.000
    O568    O    0.42971   0.73352   0.79694   1.000
    O569    O    0.42889   0.64092   0.81417   1.000
    O570    O    0.73283   0.06800   0.79697   1.000
    O571    O    0.64042   0.06881   0.81421   1.000
    O572    O    0.69982   0.43178   0.82069   1.000
    O573    O    0.06928   0.69679   0.82110   1.000
    O574    O    0.43122   0.80168   0.82185   1.000
    O575    O    0.80092   0.06668   0.82188   1.000
    O576    O    0.94639   0.41692   0.83094   1.000
    O577    O    0.41661   0.55501   0.83244   1.000
    O578    O    0.55467   0.08129   0.83252   1.000
    O579    O    0.08224   0.94353   0.83257   1.000
    O580    O    0.88064   0.44105   0.85774   1.000
    O581    O    0.44047   0.62111   0.85898   1.000
    O582    O    0.62082   0.05726   0.85904   1.000
    O583    O    0.05984   0.87690   0.85910   1.000
    O584    O    0.02217   0.22897   0.85992   1.000
    O585    O    0.26959   0.02253   0.86039   1.000
    O586    O    0.47599   0.26960   0.86051   1.000
    O587    O    0.22906   0.47626   0.86054   1.000
    O588    O    0.03490   0.15976   0.86023   1.000
    O589    O    0.33861   0.03559   0.86061   1.000
    O590    O    0.46284   0.33874   0.86074   1.000
    O591    O    0.16006   0.46303   0.86079   1.000
    O592    O    0.01304   0.19172   0.89512   1.000
    O593    O    0.30693   0.01390   0.89558   1.000
    O594    O    0.48510   0.30700   0.89565   1.000
    O595    O    0.19189   0.48510   0.89572   1.000
    O596    O    0.91187   0.44228   0.90926   1.000
    O597    O    0.44183   0.58870   0.90995   1.000
    O598    O    0.58858   0.05620   0.90997   1.000
    O599    O    0.05808   0.90949   0.90998   1.000
    O600    O    0.00074   0.14499   0.93497   1.000
    O601    O    0.98983   0.23225   0.93593   1.000
    O602    O    0.49852   0.35409   0.93532   1.000
    O603    O    0.50968   0.26686   0.93637   1.000
    O604    O    0.35390   0.00131   0.93534   1.000
    O605    O    0.26680   0.99033   0.93641   1.000
    O606    O    0.14516   0.49800   0.93552   1.000
    O607    O    0.23226   0.50899   0.93646   1.000
    O608    O    0.03098   0.46546   0.94392   1.000
    O609    O    0.96963   0.35325   0.94461   1.000
    O610    O    0.91542   0.45376   0.96858   1.000
    O611    O    0.03349   0.03062   0.94369   1.000
    O612    O    0.14589   0.96957   0.94492   1.000
    O613    O    0.04585   0.91516   0.96883   1.000
    O614    O    0.46818   0.03359   0.94388   1.000
    O615    O    0.52997   0.14571   0.94491   1.000
    O616    O    0.58440   0.04544   0.96871   1.000
    O617    O    0.46564   0.46833   0.94388   1.000
    O618    O    0.35307   0.52949   0.94496   1.000
    O619    O    0.45302   0.58429   0.96882   1.000
    O620    O    0.97038   0.25418   0.97534   1.000
    O621    O    0.53026   0.24529   0.97568   1.000
    O622    O    0.25411   0.52897   0.97580   1.000
    O623    O    0.24525   0.97069   0.97583   1.000
loop_
    _geom_bond_atom_site_label_1
    _geom_bond_atom_site_label_2
    _geom_bond_distance
    _geom_bond_site_symmetry_2
    _ccdc_geom_bond_type
    C181   O288      0.68465      .   S
    C250   O288      0.68465      .   S
    C181   O289      0.53735  1_554   S
    C86    O289      0.53735      .   S
    C181   O290      0.66085  1_554   S
    C249   O290      0.66085      .   S
    C175   O291      0.68060      .   S
    C246   O291      0.68060      .   S
    C175   O292      0.54092  1_554   S
    C81    O292      0.54092      .   S
    C175   O293      0.66107  1_554   S
    C245   O293      0.66107      .   S
    C187   O294      0.68242      .   S
    C254   O294      0.68242      .   S
    C187   O295      0.53949  1_554   S
    C91    O295      0.53949      .   S
    C187   O296      0.66114  1_554   S
    C253   O296      0.66114      .   S
    C169   O297      0.67943      .   S
    C242   O297      0.67943      .   S
    C169   O298      0.54212  1_554   S
    C76    O298      0.54212      .   S
    C169   O299      0.66119  1_554   S
    C241   O299      0.66119      .   S
    C217   O300      1.01917      .   S
    C6     O300      1.01917      .   S
    C217   O301      0.69976  1_554   S
    C216   O301      0.69976      .   S
    C217   O302      0.66094  1_554   S
    C133   O302      0.66094      .   S
    C221   O303      1.02150      .   S
    C7     O303      1.02150      .   S
    C221   O304      0.69982  1_554   S
    C220   O304      0.69982      .   S
    C221   O305      0.66119      .   S
    C139   O305      0.66119  1_556   S
    C209   O306      1.02118      .   S
    C4     O306      1.02118      .   S
    C209   O307      0.69993  1_554   S
    C208   O307      0.69993  1_545   S
    C209   O308      0.66120      .   S
    C121   O308      0.66120  1_556   S
    C213   O309      1.01975      .   S
    C5     O309      1.01975      .   S
    C213   O310      0.69985  1_554   S
    C212   O310      0.69985      .   S
    C213   O311      0.66111      .   S
    C127   O311      0.66111  1_556   S
    C46    O312      0.54256      .   S
    C133   O312      0.54256  1_556   S
    C51    O313      0.54254      .   S
    C139   O313      0.54254  1_556   S
    C41    O314      0.54226      .   S
    C127   O314      0.54226  1_556   S
    C36    O315      0.54258      .   S
    C121   O315      0.54258  1_556   S
    C242   O316      1.02308      .   S
    C6     O316      1.02308      .   S
    C242   O317      0.68649      .   S
    C168   O317      0.68649  1_565   S
    C246   O318      1.01951      .   S
    C7     O318      1.01951      .   S
    C246   O319      0.68660      .   S
    C174   O319      0.68660      .   S
    C254   O320      1.02229      .   S
    C4     O320      1.02229      .   S
    C254   O321      0.68642      .   S
    C186   O321      0.68642      .   S
    C250   O322      1.01840      .   S
    C5     O322      1.01840      .   S
    C250   O323      0.68647      .   S
    C180   O323      0.68647  1_655   S
    C244   O324      0.99808      .   S
    C5     O324      0.99808  1_455   S
    C244   O325      0.67793      .   S
    C174   O325      0.67793      .   S
    C244   O326      0.69995      .   S
    C245   O326      0.69995  1_556   S
    C240   O327      0.99534      .   S
    C4     O327      0.99534      .   S
    C240   O328      0.67794      .   S
    C168   O328      0.67794      .   S
    C240   O329      0.69963  1_565   S
    C241   O329      0.69963  1_556   S
    C252   O330      0.99602      .   S
    C7     O330      0.99602      .   S
    C252   O331      0.67799      .   S
    C186   O331      0.67799      .   S
    C252   O332      0.69977      .   S
    C253   O332      0.69977  1_556   S
    C248   O333      0.99595  1_455   S
    C6     O333      0.99595  1_545   S
    C248   O334      0.67783  1_455   S
    C180   O334      0.67783      .   S
    C248   O335      0.70025      .   S
    C249   O335      0.70025  1_556   S
    C7     O336      0.98235      .   S
    C270   O336      0.98235      .   S
    C4     O337      0.98121      .   S
    C264   O337      0.98121      .   S
    C6     O338      0.98160      .   S
    C268   O338      0.98160      .   S
    C5     O339      0.98030      .   S
    C266   O339      0.98030      .   S
    C174   O340      0.67075      .   S
    C247   O340      0.67075      .   S
    C168   O341      0.67080      .   S
    C243   O341      0.67080      .   S
    C186   O342      0.67086      .   S
    C255   O342      0.67086      .   S
    C180   O343      0.67075      .   S
    C251   O343      0.67075      .   S
    C268   O344      0.64760      .   S
    C137   O344      0.64760      .   S
    C264   O345      0.64753      .   S
    C125   O345      0.64753      .   S
    C270   O346      0.64759      .   S
    C143   O346      0.64759      .   S
    C266   O347      0.64759      .   S
    C131   O347      0.64759      .   S
    C255   O348      0.51359      .   S
    C95    O348      0.51359      .   S
    C255   O349      0.51338      .   S
    C94    O349      0.51338      .   S
    C247   O350      0.51393      .   S
    C85    O350      0.51393      .   S
    C247   O351      0.51336      .   S
    C84    O351      0.51336      .   S
    C243   O352      0.51349      .   S
    C80    O352      0.51349      .   S
    C243   O353      0.51330      .   S
    C79    O353      0.51330      .   S
    C251   O354      0.51351      .   S
    C90    O354      0.51351      .   S
    C251   O355      0.51344      .   S
    C89    O355      0.51344      .   S
    C28    O356      0.54517      .   S
    C112   O356      0.54517      .   S
    C18    O357      0.54428      .   S
    C100   O357      0.54428      .   S
    C33    O358      0.54431      .   S
    C118   O358      0.54431      .   S
    C23    O359      0.54424      .   S
    C106   O359      0.54424      .   S
    C137   O360      0.63300      .   S
    C269   O360      0.63300      .   S
    C137   O361      0.74763      .   S
    C134   O361      0.74763      .   S
    C125   O362      0.63308      .   S
    C265   O362      0.63308      .   S
    C125   O363      0.74765      .   S
    C122   O363      0.74765      .   S
    C143   O364      0.63310      .   S
    C271   O364      0.63310      .   S
    C143   O365      0.74798      .   S
    C140   O365      0.74798      .   S
    C131   O366      0.63282      .   S
    C267   O366      0.63282      .   S
    C131   O367      0.74784      .   S
    C128   O367      0.74784      .   S
    C100   O368      0.70232      .   S
    C122   O368      0.70232      .   S
    C100   O369      0.69542      .   S
    C99    O369      0.69542      .   S
    C112   O370      0.70235      .   S
    C140   O370      0.70235      .   S
    C112   O371      0.69559      .   S
    C111   O371      0.69559      .   S
    C118   O372      0.70230      .   S
    C134   O372      0.70230      .   S
    C118   O373      0.69558      .   S
    C117   O373      0.69558      .   S
    C106   O374      0.70235      .   S
    C128   O374      0.70235      .   S
    C106   O375      0.69567      .   S
    C105   O375      0.69567      .   S
    C122   O376      0.70164      .   S
    C123   O376      0.70164      .   S
    C140   O377      0.70174      .   S
    C141   O377      0.70174      .   S
    C134   O378      0.70164      .   S
    C135   O378      0.70164      .   S
    C128   O379      0.70153      .   S
    C129   O379      0.70153      .   S
    C17    O380      0.54426      .   S
    C99    O380      0.54426      .   S
    C27    O381      0.54430      .   S
    C111   O381      0.54430      .   S
    C22    O382      0.54436      .   S
    C105   O382      0.54436      .   S
    C32    O383      0.54431      .   S
    C117   O383      0.54431      .   S
    C99    O384      0.70159      .   S
    C98    O384      0.70159      .   S
    C111   O385      0.70161      .   S
    C110   O385      0.70161      .   S
    C117   O386      0.70164      .   S
    C116   O386      0.70164      .   S
    C105   O387      0.70135      .   S
    C104   O387      0.70135      .   S
    C123   O388      0.54438      .   S
    C37    O388      0.54438      .   S
    C123   O389      0.69575      .   S
    C124   O389      0.69575      .   S
    C135   O390      0.54431      .   S
    C47    O390      0.54431      .   S
    C135   O391      0.69554      .   S
    C136   O391      0.69554      .   S
    C141   O392      0.54435      .   S
    C52    O392      0.54435      .   S
    C141   O393      0.69572      .   S
    C142   O393      0.69572      .   S
    C129   O394      0.54430      .   S
    C42    O394      0.54430      .   S
    C129   O395      0.69552      .   S
    C130   O395      0.69552      .   S
    C98    O396      0.70236      .   S
    C124   O396      0.70236      .   S
    C98    O397      0.74783      .   S
    C101   O397      0.74783      .   S
    C110   O398      0.70239      .   S
    C142   O398      0.70239      .   S
    C110   O399      0.74810      .   S
    C113   O399      0.74810      .   S
    C116   O400      0.70232      .   S
    C136   O400      0.70232      .   S
    C116   O401      0.74772      .   S
    C119   O401      0.74772      .   S
    C104   O402      0.70240      .   S
    C130   O402      0.70240      .   S
    C104   O403      0.74783      .   S
    C107   O403      0.74783      .   S
    C124   O404      0.54421      .   S
    C38    O404      0.54421      .   S
    C142   O405      0.54427      .   S
    C53    O405      0.54427      .   S
    C136   O406      0.54420      .   S
    C48    O406      0.54420      .   S
    C130   O407      0.54422      .   S
    C43    O407      0.54422      .   S
    C261   O408      0.63291      .   S
    C113   O408      0.63291      .   S
    C257   O409      0.63264      .   S
    C101   O409      0.63264      .   S
    C259   O410      0.63315      .   S
    C107   O410      0.63315      .   S
    C263   O411      0.63315      .   S
    C119   O411      0.63315      .   S
    C101   O412      0.64768      .   S
    C256   O412      0.64768      .   S
    C113   O413      0.64779      .   S
    C260   O413      0.64779      .   S
    C119   O414      0.64740      .   S
    C262   O414      0.64740      .   S
    C107   O415      0.64749      .   S
    C258   O415      0.64749      .   S
    C59    O416      0.51341      .   S
    C227   O416      0.51341      .   S
    C74    O417      0.51334      .   S
    C239   O417      0.51334      .   S
    C64    O418      0.51334      .   S
    C231   O418      0.51334      .   S
    C60    O419      0.51409      .   S
    C227   O419      0.51409      .   S
    C75    O420      0.51358      .   S
    C239   O420      0.51358      .   S
    C69    O421      0.51359      .   S
    C235   O421      0.51359      .   S
    C65    O422      0.51363      .   S
    C231   O422      0.51363      .   S
    C70    O423      0.51400      .   S
    C235   O423      0.51400      .   S
    C227   O424      0.67052      .   S
    C144   O424      0.67052      .   S
    C239   O425      0.67069      .   S
    C162   O425      0.67069      .   S
    C231   O426      0.67024      .   S
    C150   O426      0.67024      .   S
    C235   O427      0.67064      .   S
    C156   O427      0.67064      .   S
    C256   O428      0.97873      .   S
    C0     O428      0.97873      .   S
    C260   O429      0.98116      .   S
    C2     O429      0.98116      .   S
    C262   O430      0.98129      .   S
    C3     O430      0.98129      .   S
    C258   O431      0.98111      .   S
    C1     O431      0.98111      .   S
    C144   O432      0.67800      .   S
    C224   O432      0.67800      .   S
    C144   O433      0.68640  1_565   S
    C226   O433      0.68640      .   S
    C162   O434      0.67804      .   S
    C236   O434      0.67804  1_455   S
    C162   O435      0.68656  1_655   S
    C238   O435      0.68656      .   S
    C150   O436      0.67828      .   S
    C228   O436      0.67828      .   S
    C150   O437      0.68675      .   S
    C230   O437      0.68675      .   S
    C156   O438      0.67781      .   S
    C232   O438      0.67781      .   S
    C156   O439      0.68623      .   S
    C234   O439      0.68623      .   S
    C2     O440      0.99380  1_545   S
    C232   O440      0.99380      .   S
    C2     O441      1.01835      .   S
    C226   O441      1.01835      .   S
    C2     O442      1.02184      .   S
    C201   O442      1.02184      .   S
    C0     O443      0.99682  1_455   S
    C224   O443      0.99682      .   S
    C0     O444      1.02212      .   S
    C238   O444      1.02212      .   S
    C0     O445      1.01829      .   S
    C193   O445      1.01829      .   S
    C3     O446      0.99511      .   S
    C236   O446      0.99511  1_455   S
    C3     O447      1.02287      .   S
    C230   O447      1.02287      .   S
    C3     O448      1.02077      .   S
    C205   O448      1.02077      .   S
    C1     O449      0.99598      .   S
    C228   O449      0.99598      .   S
    C1     O450      1.01797      .   S
    C234   O450      1.01797      .   S
    C1     O451      1.02213      .   S
    C197   O451      1.02213      .   S
    C236   O452      0.69990      .   S
    C237   O452      0.69990      .   S
    C228   O453      0.69963      .   S
    C229   O453      0.69963      .   S
    C224   O454      0.69968  1_565   S
    C225   O454      0.69968      .   S
    C232   O455      0.69975      .   S
    C233   O455      0.69975      .   S
    C226   O456      0.67851      .   S
    C145   O456      0.67851      .   S
    C238   O457      0.67828      .   S
    C163   O457      0.67828      .   S
    C230   O458      0.67889      .   S
    C151   O458      0.67889      .   S
    C234   O459      0.67873      .   S
    C157   O459      0.67873      .   S
    C26    O460      0.54257      .   S
    C109   O460      0.54257      .   S
    C16    O461      0.54255      .   S
    C97    O461      0.54255      .   S
    C21    O462      0.54266      .   S
    C103   O462      0.54266      .   S
    C31    O463      0.54259      .   S
    C115   O463      0.54259      .   S
    C201   O464      0.66109      .   S
    C109   O464      0.66109      .   S
    C201   O465      0.69977      .   S
    C200   O465      0.69977      .   S
    C193   O466      0.66101      .   S
    C97    O466      0.66101      .   S
    C193   O467      0.69973      .   S
    C192   O467      0.69973  1_545   S
    C205   O468      0.66118      .   S
    C115   O468      0.66118      .   S
    C205   O469      0.69958      .   S
    C204   O469      0.69958      .   S
    C197   O470      0.66119      .   S
    C103   O470      0.66119      .   S
    C197   O471      0.69959      .   S
    C196   O471      0.69959      .   S
    C163   O472      0.66118      .   S
    C237   O472      0.66118      .   S
    C163   O473      0.54302      .   S
    C71    O473      0.54302      .   S
    C109   O474      0.67873      .   S
    C202   O474      0.67873      .   S
    C151   O475      0.66119      .   S
    C229   O475      0.66119      .   S
    C151   O476      0.54261      .   S
    C61    O476      0.54261      .   S
    C145   O477      0.66101      .   S
    C225   O477      0.66101      .   S
    C145   O478      0.54242      .   S
    C56    O478      0.54242      .   S
    C97    O479      0.67857      .   S
    C194   O479      0.67857      .   S
    C103   O480      0.67892      .   S
    C198   O480      0.67892      .   S
    C115   O481      0.67878      .   S
    C206   O481      0.67878      .   S
    C157   O482      0.66109      .   S
    C233   O482      0.66109      .   S
    C157   O483      0.54254      .   S
    C66    O483      0.54254      .   S
    C237   O484      1.02092      .   S
    C11    O484      1.02092      .   S
    C229   O485      1.02201      .   S
    C9     O485      1.02201      .   S
    C225   O486      1.01830      .   S
    C8     O486      1.01830      .   S
    C233   O487      1.02181      .   S
    C10    O487      1.02181      .   S
    C202   O488      1.01794      .   S
    C9     O488      1.01794      .   S
    C202   O489      0.68626      .   S
    C108   O489      0.68626      .   S
    C198   O490      1.02288      .   S
    C11    O490      1.02288      .   S
    C198   O491      0.68646      .   S
    C102   O491      0.68646      .   S
    C206   O492      1.02212      .   S
    C8     O492      1.02212      .   S
    C206   O493      0.68655      .   S
    C114   O493      0.68655  1_455   S
    C194   O494      1.01841      .   S
    C10    O494      1.01841      .   S
    C194   O495      0.68636      .   S
    C96    O495      0.68636  1_545   S
    C200   O496      0.99377      .   S
    C10    O496      0.99377  1_565   S
    C200   O497      0.67786      .   S
    C108   O497      0.67786      .   S
    C192   O498      0.99681      .   S
    C8     O498      0.99681  1_655   S
    C192   O499      0.67801      .   S
    C96    O499      0.67801      .   S
    C204   O500      0.99571  1_655   S
    C11    O500      0.99571      .   S
    C204   O501      0.67809  1_655   S
    C114   O501      0.67809      .   S
    C196   O502      0.99596      .   S
    C9     O502      0.99596      .   S
    C196   O503      0.67798      .   S
    C102   O503      0.67798      .   S
    C9     O504      0.98119      .   S
    C274   O504      0.98119      .   S
    C11    O505      0.98119      .   S
    C278   O505      0.98119      .   S
    C8     O506      0.97877      .   S
    C272   O506      0.97877      .   S
    C10    O507      0.98123      .   S
    C276   O507      0.98123      .   S
    C108   O508      0.67053      .   S
    C203   O508      0.67053      .   S
    C102   O509      0.67077      .   S
    C199   O509      0.67077      .   S
    C114   O510      0.67071      .   S
    C207   O510      0.67071      .   S
    C96    O511      0.67049      .   S
    C195   O511      0.67049      .   S
    C274   O512      0.64754      .   S
    C155   O512      0.64754      .   S
    C278   O513      0.64745      .   S
    C167   O513      0.64745      .   S
    C276   O514      0.64768      .   S
    C161   O514      0.64768      .   S
    C272   O515      0.64706      .   S
    C149   O515      0.64706      .   S
    C203   O516      0.51395      .   S
    C30    O516      0.51395      .   S
    C203   O517      0.51358      .   S
    C29    O517      0.51358      .   S
    C199   O518      0.51358      .   S
    C25    O518      0.51358      .   S
    C199   O519      0.51332      .   S
    C24    O519      0.51332      .   S
    C207   O520      0.51362      .   S
    C35    O520      0.51362      .   S
    C207   O521      0.51335      .   S
    C34    O521      0.51335      .   S
    C195   O522      0.51406      .   S
    C20    O522      0.51406      .   S
    C195   O523      0.51343      .   S
    C19    O523      0.51343      .   S
    C83    O524      0.54422      .   S
    C178   O524      0.54422      .   S
    C88    O525      0.54421      .   S
    C184   O525      0.54421      .   S
    C93    O526      0.54499      .   S
    C190   O526      0.54499      .   S
    C78    O527      0.54398      .   S
    C172   O527      0.54398      .   S
    C155   O528      0.63315      .   S
    C275   O528      0.63315      .   S
    C155   O529      0.74761      .   S
    C152   O529      0.74761      .   S
    C167   O530      0.63301      .   S
    C279   O530      0.63301      .   S
    C167   O531      0.74763      .   S
    C164   O531      0.74763      .   S
    C161   O532      0.63282      .   S
    C277   O532      0.63282      .   S
    C161   O533      0.74824      .   S
    C158   O533      0.74824      .   S
    C149   O534      0.63260      .   S
    C273   O534      0.63260      .   S
    C149   O535      0.74834      .   S
    C146   O535      0.74834      .   S
    C178   O536      0.70233      .   S
    C152   O536      0.70233      .   S
    C178   O537      0.69541      .   S
    C177   O537      0.69541      .   S
    C184   O538      0.70231      .   S
    C164   O538      0.70231      .   S
    C184   O539      0.69505      .   S
    C183   O539      0.69505      .   S
    C190   O540      0.70240      .   S
    C158   O540      0.70240      .   S
    C190   O541      0.69574      .   S
    C189   O541      0.69574      .   S
    C172   O542      0.70241      .   S
    C146   O542      0.70241      .   S
    C172   O543      0.69592      .   S
    C171   O543      0.69592      .   S
    C152   O544      0.70159      .   S
    C153   O544      0.70159      .   S
    C164   O545      0.70165      .   S
    C165   O545      0.70165      .   S
    C158   O546      0.70159      .   S
    C159   O546      0.70159      .   S
    C146   O547      0.70161      .   S
    C147   O547      0.70161      .   S
    C82    O548      0.54444      .   S
    C177   O548      0.54444      .   S
    C92    O549      0.54435      .   S
    C189   O549      0.54435      .   S
    C77    O550      0.54437      .   S
    C171   O550      0.54437      .   S
    C87    O551      0.54419      .   S
    C183   O551      0.54419      .   S
    C177   O552      0.70153      .   S
    C176   O552      0.70153      .   S
    C183   O553      0.70214      .   S
    C182   O553      0.70214      .   S
    C189   O554      0.70173      .   S
    C188   O554      0.70173      .   S
    C171   O555      0.70165      .   S
    C170   O555      0.70165      .   S
    C153   O556      0.54439      .   S
    C62    O556      0.54439      .   S
    C153   O557      0.69508      .   S
    C154   O557      0.69508      .   S
    C165   O558      0.54433      .   S
    C72    O558      0.54433      .   S
    C165   O559      0.69536      .   S
    C166   O559      0.69536      .   S
    C159   O560      0.54429      .   S
    C67    O560      0.54429      .   S
    C159   O561      0.69560      .   S
    C160   O561      0.69560      .   S
    C147   O562      0.54426      .   S
    C57    O562      0.54426      .   S
    C147   O563      0.69540      .   S
    C148   O563      0.69540      .   S
    C176   O564      0.70222      .   S
    C154   O564      0.70222      .   S
    C176   O565      0.74797      .   S
    C179   O565      0.74797      .   S
    C182   O566      0.70229      .   S
    C166   O566      0.70229      .   S
    C182   O567      0.74778      .   S
    C185   O567      0.74778      .   S
    C188   O568      0.70238      .   S
    C160   O568      0.70238      .   S
    C188   O569      0.74798      .   S
    C191   O569      0.74798      .   S
    C170   O570      0.70232      .   S
    C148   O570      0.70232      .   S
    C170   O571      0.74770      .   S
    C173   O571      0.74770      .   S
    C154   O572      0.54509      .   S
    C63    O572      0.54509      .   S
    C166   O573      0.54456      .   S
    C73    O573      0.54456      .   S
    C160   O574      0.54420      .   S
    C68    O574      0.54420      .   S
    C148   O575      0.54429      .   S
    C58    O575      0.54429      .   S
    C283   O576      0.63281      .   S
    C179   O576      0.63281      .   S
    C287   O577      0.63307      .   S
    C191   O577      0.63307      .   S
    C281   O578      0.63308      .   S
    C173   O578      0.63308      .   S
    C285   O579      0.63301      .   S
    C185   O579      0.63301      .   S
    C179   O580      0.64762      .   S
    C282   O580      0.64762      .   S
    C191   O581      0.64684      .   S
    C286   O581      0.64684      .   S
    C173   O582      0.64753      .   S
    C280   O582      0.64753      .   S
    C185   O583      0.64753      .   S
    C284   O583      0.64753      .   S
    C49    O584      0.51343      .   S
    C219   O584      0.51343      .   S
    C39    O585      0.51328      .   S
    C211   O585      0.51328      .   S
    C54    O586      0.51342      .   S
    C223   O586      0.51342      .   S
    C44    O587      0.51341      .   S
    C215   O587      0.51341      .   S
    C50    O588      0.51354      .   S
    C219   O588      0.51354      .   S
    C40    O589      0.51351      .   S
    C211   O589      0.51351      .   S
    C55    O590      0.51358      .   S
    C223   O590      0.51358      .   S
    C45    O591      0.51398      .   S
    C215   O591      0.51398      .   S
    C219   O592      0.67059      .   S
    C132   O592      0.67059      .   S
    C211   O593      0.67079      .   S
    C120   O593      0.67079      .   S
    C223   O594      0.67075      .   S
    C138   O594      0.67075      .   S
    C215   O595      0.67063      .   S
    C126   O595      0.67063      .   S
    C282   O596      0.98017      .   S
    C13    O596      0.98017      .   S
    C286   O597      0.98218      .   S
    C15    O597      0.98218      .   S
    C280   O598      0.98126      .   S
    C12    O598      0.98126      .   S
    C284   O599      0.98156      .   S
    C14    O599      0.98156      .   S
    C132   O600      0.67802      .   S
    C216   O600      0.67802  1_655   S
    C132   O601      0.68655  1_455   S
    C218   O601      0.68655      .   S
    C138   O602      0.67801      .   S
    C220   O602      0.67801      .   S
    C138   O603      0.68649      .   S
    C222   O603      0.68649      .   S
    C120   O604      0.67780      .   S
    C208   O604      0.67780      .   S
    C120   O605      0.68652  1_545   S
    C210   O605      0.68652      .   S
    C126   O606      0.67799      .   S
    C212   O606      0.67799      .   S
    C126   O607      0.68659      .   S
    C214   O607      0.68659      .   S
    C13    O608      0.99805  1_655   S
    C212   O608      0.99805      .   S
    C13    O609      1.01857      .   S
    C218   O609      1.01857      .   S
    C13    O610      1.01976      .   S
    C245   O610      1.01976      .   S
    C14    O611      0.99681  1_565   S
    C216   O611      0.99681  1_655   S
    C14    O612      1.02308      .   S
    C210   O612      1.02308      .   S
    C14    O613      1.01918      .   S
    C249   O613      1.01918      .   S
    C12    O614      0.99543      .   S
    C208   O614      0.99543      .   S
    C12    O615      1.02218      .   S
    C222   O615      1.02218      .   S
    C12    O616      1.02116      .   S
    C241   O616      1.02116      .   S
    C15    O617      0.99632      .   S
    C220   O617      0.99632      .   S
    C15    O618      1.01970      .   S
    C214   O618      1.01970      .   S
    C15    O619      1.02227      .   S
    C253   O619      1.02227      .   S
    C218   O620      0.67883      .   S
    C133   O620      0.67883      .   S
    C222   O621      0.67897      .   S
    C139   O621      0.67897      .   S
    C214   O622      0.67870      .   S
    C127   O622      0.67870      .   S
    C210   O623      0.67891      .   S
    C121   O623      0.67891      .   S
