# CIF file generated by openbabel 2.4.90, see http://openbabel.sf.net
data_I
_chemical_name_common 'VESTA_phase_1'
_cell_length_a 11.272
_cell_length_b 24.217
_cell_length_c 23.214
_cell_angle_alpha 98.079
_cell_angle_beta 90.007
_cell_angle_gamma 89.999
_space_group_name_H-M_alt 'P 1'
_space_group_name_Hall 'P 1'
loop_
    _symmetry_equiv_pos_as_xyz
    x,y,z
loop_
    _atom_site_label
    _atom_site_type_symbol
    _atom_site_fract_x
    _atom_site_fract_y
    _atom_site_fract_z
    _atom_site_occupancy
    Ca0     Ca   0.14597   0.44700   0.45459   1.000
    Ca1     Ca   0.14597   0.94699   0.45459   1.000
    Ca2     Ca   0.64597   0.44700   0.45459   1.000
    Ca3     Ca   0.64597   0.94699   0.45459   1.000
    Ca4     Ca   0.39598   0.30299   0.04540   1.000
    Ca5     Ca   0.39598   0.80299   0.04540   1.000
    Ca6     Ca   0.89598   0.30299   0.04540   1.000
    Ca7     Ca   0.89598   0.80299   0.04540   1.000
    Ca8     Ca   0.35402   0.05301   0.54538   1.000
    Ca9     Ca   0.35402   0.55300   0.54538   1.000
    Ca10    Ca   0.85402   0.05301   0.54538   1.000
    Ca11    Ca   0.85403   0.55300   0.54538   1.000
    Ca12    Ca   0.10401   0.19701   0.95458   1.000
    Ca13    Ca   0.10402   0.69701   0.95458   1.000
    Ca14    Ca   0.60401   0.19701   0.95458   1.000
    Ca15    Ca   0.60402   0.69701   0.95458   1.000
    H16     H    0.02757   0.32662   0.52592   1.000
    H17     H    0.02758   0.82662   0.52592   1.000
    H18     H    0.52757   0.32662   0.52592   1.000
    H19     H    0.52758   0.82662   0.52592   1.000
    H20     H    0.18711   0.39255   0.58279   1.000
    H21     H    0.18711   0.89255   0.58279   1.000
    H22     H    0.68711   0.39255   0.58279   1.000
    H23     H    0.68711   0.89255   0.58279   1.000
    H24     H    0.47586   0.23513   0.55794   1.000
    H25     H    0.47587   0.73512   0.55794   1.000
    H26     H    0.97586   0.23513   0.55794   1.000
    H27     H    0.97587   0.73512   0.55794   1.000
    H28     H    0.13408   0.30175   0.61494   1.000
    H29     H    0.13408   0.80174   0.61494   1.000
    H30     H    0.63408   0.30175   0.61494   1.000
    H31     H    0.63409   0.80174   0.61494   1.000
    H32     H    0.46507   0.15999   0.66603   1.000
    H33     H    0.46507   0.65998   0.66600   1.000
    H34     H    0.96507   0.15999   0.66600   1.000
    H35     H    0.96507   0.65998   0.66600   1.000
    H36     H    0.12379   0.23641   0.70710   1.000
    H37     H    0.12380   0.73641   0.70709   1.000
    H38     H    0.62380   0.23641   0.70710   1.000
    H39     H    0.62380   0.73641   0.70700   1.000
    H40     H    0.00403   0.16177   0.77260   1.000
    H41     H    0.00403   0.66176   0.77260   1.000
    H42     H    0.50403   0.16177   0.77260   1.000
    H43     H    0.50403   0.66176   0.77260   1.000
    H44     H    0.16198   0.23519   0.81276   1.000
    H45     H    0.16198   0.73518   0.81276   1.000
    H46     H    0.66198   0.23519   0.81276   1.000
    H47     H    0.66199   0.73518   0.81276   1.000
    H48     H    0.27760   0.42337   0.97402   1.000
    H49     H    0.27760   0.92337   0.97402   1.000
    H50     H    0.77760   0.42337   0.97402   1.000
    H51     H    0.77760   0.92337   0.97402   1.000
    H52     H    0.43701   0.35750   0.91723   1.000
    H53     H    0.43702   0.85750   0.91723   1.000
    H54     H    0.93701   0.35750   0.91720   1.000
    H55     H    0.93702   0.85750   0.91723   1.000
    H56     H    0.22594   0.01487   0.94198   1.000
    H57     H    0.22594   0.51486   0.94198   1.000
    H58     H    0.72594   0.01487   0.94198   1.000
    H59     H    0.72594   0.51486   0.94198   1.000
    H60     H    0.38403   0.44831   0.88507   1.000
    H61     H    0.38403   0.94830   0.88507   1.000
    H62     H    0.88403   0.44831   0.88507   1.000
    H63     H    0.88403   0.94830   0.88507   1.000
    H64     H    0.21507   0.09005   0.83394   1.000
    H65     H    0.21508   0.59004   0.83394   1.000
    H66     H    0.71508   0.09005   0.83394   1.000
    H67     H    0.71508   0.59004   0.83394   1.000
    H68     H    0.37387   0.01356   0.79281   1.000
    H69     H    0.37388   0.51355   0.79281   1.000
    H70     H    0.87387   0.01356   0.79281   1.000
    H71     H    0.87388   0.51355   0.79281   1.000
    H72     H    0.25407   0.08827   0.72738   1.000
    H73     H    0.25407   0.58826   0.72738   1.000
    H74     H    0.75407   0.08827   0.72738   1.000
    H75     H    0.75407   0.58826   0.72738   1.000
    H76     H    0.41209   0.01479   0.68716   1.000
    H77     H    0.41210   0.51478   0.68716   1.000
    H78     H    0.91209   0.01479   0.68716   1.000
    H79     H    0.91210   0.51478   0.68716   1.000
    H80     H    0.47242   0.17338   0.47405   1.000
    H81     H    0.47243   0.67338   0.47400   1.000
    H82     H    0.97242   0.17338   0.47400   1.000
    H83     H    0.97243   0.67338   0.47400   1.000
    H84     H    0.31289   0.10745   0.41718   1.000
    H85     H    0.31289   0.60745   0.41718   1.000
    H86     H    0.81288   0.10745   0.41718   1.000
    H87     H    0.81289   0.60745   0.41718   1.000
    H88     H    0.02413   0.26488   0.44200   1.000
    H89     H    0.02414   0.76487   0.44202   1.000
    H90     H    0.52413   0.26488   0.44200   1.000
    H91     H    0.52414   0.76487   0.44202   1.000
    H92     H    0.36592   0.19825   0.38503   1.000
    H93     H    0.36592   0.69825   0.38503   1.000
    H94     H    0.86592   0.19825   0.38503   1.000
    H95     H    0.86592   0.69825   0.38503   1.000
    H96     H    0.03493   0.34002   0.33394   1.000
    H97     H    0.03494   0.84001   0.33394   1.000
    H98     H    0.53493   0.34002   0.33394   1.000
    H99     H    0.53494   0.84001   0.33394   1.000
    H100    H    0.37620   0.26359   0.29280   1.000
    H101    H    0.37621   0.76359   0.29287   1.000
    H102    H    0.87621   0.26359   0.29280   1.000
    H103    H    0.87621   0.76359   0.29287   1.000
    H104    H    0.49597   0.33824   0.22737   1.000
    H105    H    0.49597   0.83823   0.22737   1.000
    H106    H    0.99597   0.33824   0.22737   1.000
    H107    H    0.99597   0.83824   0.22737   1.000
    H108    H    0.33802   0.26482   0.18721   1.000
    H109    H    0.33802   0.76482   0.18721   1.000
    H110    H    0.83802   0.26482   0.18721   1.000
    H111    H    0.83802   0.76482   0.18721   1.000
    H112    H    0.22240   0.07663   0.02594   1.000
    H113    H    0.22241   0.57663   0.02594   1.000
    H114    H    0.72241   0.07663   0.02594   1.000
    H115    H    0.72241   0.57663   0.02594   1.000
    H116    H    0.06299   0.14250   0.08273   1.000
    H117    H    0.06299   0.64250   0.08273   1.000
    H118    H    0.56299   0.14250   0.08273   1.000
    H119    H    0.56299   0.64250   0.08273   1.000
    H120    H    0.27407   0.48514   0.05799   1.000
    H121    H    0.27407   0.98513   0.05799   1.000
    H122    H    0.77407   0.48514   0.05799   1.000
    H123    H    0.77407   0.98513   0.05799   1.000
    H124    H    0.11597   0.05170   0.11490   1.000
    H125    H    0.11597   0.55169   0.11400   1.000
    H126    H    0.61597   0.05170   0.11490   1.000
    H127    H    0.61598   0.55169   0.11400   1.000
    H128    H    0.28492   0.40996   0.16603   1.000
    H129    H    0.28493   0.90995   0.16603   1.000
    H130    H    0.78492   0.40996   0.16603   1.000
    H131    H    0.78493   0.90995   0.16603   1.000
    H132    H    0.12612   0.48645   0.20716   1.000
    H133    H    0.12613   0.98645   0.20716   1.000
    H134    H    0.62612   0.48645   0.20716   1.000
    H135    H    0.62613   0.98645   0.20716   1.000
    H136    H    0.24593   0.41174   0.27259   1.000
    H137    H    0.24593   0.91173   0.27250   1.000
    H138    H    0.74593   0.41174   0.27259   1.000
    H139    H    0.74593   0.91173   0.27250   1.000
    H140    H    0.08790   0.48522   0.31281   1.000
    H141    H    0.08791   0.98521   0.31281   1.000
    H142    H    0.58790   0.48522   0.31281   1.000
    H143    H    0.58791   0.98521   0.31281   1.000
    C144    C    0.39630   0.41923   0.53206   1.000
    C145    C    0.39630   0.91923   0.53206   1.000
    C146    C    0.89630   0.41923   0.53206   1.000
    C147    C    0.89630   0.91923   0.53207   1.000
    C148    C    0.36130   0.36499   0.55231   1.000
    C149    C    0.36130   0.86498   0.55231   1.000
    C150    C    0.86130   0.36499   0.55231   1.000
    C151    C    0.86130   0.86498   0.55231   1.000
    C152    C    0.44199   0.32059   0.54571   1.000
    C153    C    0.44200   0.82059   0.54571   1.000
    C154    C    0.94199   0.32059   0.54571   1.000
    C155    C    0.94200   0.82059   0.54570   1.000
    C156    C    0.25042   0.35820   0.57782   1.000
    C157    C    0.25042   0.85819   0.57782   1.000
    C158    C    0.75042   0.35819   0.57782   1.000
    C159    C    0.75042   0.85819   0.57782   1.000
    C160    C    0.41305   0.26954   0.56307   1.000
    C161    C    0.41306   0.76953   0.56307   1.000
    C162    C    0.91306   0.26954   0.56307   1.000
    C163    C    0.91307   0.76953   0.56307   1.000
    C164    C    0.22052   0.30737   0.59570   1.000
    C165    C    0.22053   0.80737   0.59578   1.000
    C166    C    0.72053   0.30737   0.59578   1.000
    C167    C    0.72053   0.80737   0.59578   1.000
    C168    C    0.30145   0.26314   0.58749   1.000
    C169    C    0.30146   0.76313   0.58749   1.000
    C170    C    0.80146   0.26314   0.58749   1.000
    C171    C    0.80146   0.76313   0.58740   1.000
    C172    C    0.29303   0.19889   0.68089   1.000
    C173    C    0.29304   0.69889   0.68089   1.000
    C174    C    0.79303   0.19890   0.68089   1.000
    C175    C    0.79304   0.69889   0.68089   1.000
    C176    C    0.40041   0.17753   0.69837   1.000
    C177    C    0.40041   0.67752   0.69837   1.000
    C178    C    0.90040   0.17753   0.69837   1.000
    C179    C    0.90041   0.67752   0.69837   1.000
    C180    C    0.20756   0.22079   0.72161   1.000
    C181    C    0.20756   0.72078   0.72160   1.000
    C182    C    0.70756   0.22079   0.72161   1.000
    C183    C    0.70757   0.72078   0.72160   1.000
    C184    C    0.42153   0.17837   0.75775   1.000
    C185    C    0.42154   0.67837   0.75775   1.000
    C186    C    0.92154   0.17837   0.75775   1.000
    C187    C    0.92154   0.67837   0.75775   1.000
    C188    C    0.22915   0.22033   0.78054   1.000
    C189    C    0.22916   0.72033   0.78054   1.000
    C190    C    0.72916   0.22033   0.78054   1.000
    C191    C    0.72916   0.72032   0.78054   1.000
    C192    C    0.33633   0.19930   0.79914   1.000
    C193    C    0.33634   0.69929   0.79914   1.000
    C194    C    0.83634   0.19930   0.79914   1.000
    C195    C    0.83634   0.69929   0.79914   1.000
    C196    C    0.35722   0.19774   0.86343   1.000
    C197    C    0.35723   0.69773   0.86343   1.000
    C198    C    0.85723   0.19774   0.86343   1.000
    C199    C    0.85723   0.69773   0.86343   1.000
    C200    C    0.14627   0.33078   0.96791   1.000
    C201    C    0.14627   0.83078   0.96790   1.000
    C202    C    0.64628   0.33078   0.96791   1.000
    C203    C    0.64628   0.83078   0.96790   1.000
    C204    C    0.11126   0.38503   0.94767   1.000
    C205    C    0.11127   0.88503   0.94760   1.000
    C206    C    0.61126   0.38503   0.94767   1.000
    C207    C    0.61126   0.88503   0.94768   1.000
    C208    C    0.19200   0.42941   0.95425   1.000
    C209    C    0.19200   0.92941   0.95425   1.000
    C210    C    0.69200   0.42941   0.95425   1.000
    C211    C    0.69200   0.92941   0.95425   1.000
    C212    C    0.50036   0.39184   0.92218   1.000
    C213    C    0.50036   0.89184   0.92218   1.000
    C214    C    0.00000   0.39184   0.92218   1.000
    C215    C    0.00000   0.89184   0.92218   1.000
    C216    C    0.16310   0.48047   0.93687   1.000
    C217    C    0.16310   0.98046   0.93687   1.000
    C218    C    0.66310   0.48047   0.93687   1.000
    C219    C    0.66310   0.98046   0.93687   1.000
    C220    C    0.47050   0.44266   0.90421   1.000
    C221    C    0.47050   0.94266   0.90421   1.000
    C222    C    0.97050   0.44266   0.90421   1.000
    C223    C    0.97050   0.94266   0.90421   1.000
    C224    C    0.05147   0.48688   0.91247   1.000
    C225    C    0.05147   0.98688   0.91247   1.000
    C226    C    0.55147   0.48688   0.91247   1.000
    C227    C    0.55147   0.98688   0.91247   1.000
    C228    C    0.04306   0.05112   0.81900   1.000
    C229    C    0.04307   0.55111   0.81900   1.000
    C230    C    0.54307   0.05112   0.81900   1.000
    C231    C    0.54307   0.55111   0.81900   1.000
    C232    C    0.15043   0.07250   0.80159   1.000
    C233    C    0.15043   0.57249   0.80159   1.000
    C234    C    0.65043   0.07250   0.80159   1.000
    C235    C    0.65043   0.57249   0.80159   1.000
    C236    C    0.45763   0.02920   0.77832   1.000
    C237    C    0.45763   0.52920   0.77832   1.000
    C238    C    0.95763   0.02920   0.77832   1.000
    C239    C    0.95763   0.52920   0.77832   1.000
    C240    C    0.17158   0.07166   0.74222   1.000
    C241    C    0.17158   0.57165   0.74222   1.000
    C242    C    0.67158   0.07166   0.74222   1.000
    C243    C    0.67158   0.57165   0.74222   1.000
    C244    C    0.47924   0.02966   0.71939   1.000
    C245    C    0.47924   0.52966   0.71939   1.000
    C246    C    0.97924   0.02966   0.71939   1.000
    C247    C    0.97924   0.52966   0.71939   1.000
    C248    C    0.08640   0.05072   0.70082   1.000
    C249    C    0.08640   0.55071   0.70082   1.000
    C250    C    0.58640   0.05072   0.70082   1.000
    C251    C    0.58640   0.55071   0.70082   1.000
    C252    C    0.10727   0.05227   0.63653   1.000
    C253    C    0.10727   0.55227   0.63653   1.000
    C254    C    0.60727   0.05227   0.63653   1.000
    C255    C    0.60727   0.55227   0.63653   1.000
    C256    C    0.10369   0.08077   0.46791   1.000
    C257    C    0.10369   0.58077   0.46790   1.000
    C258    C    0.60369   0.08077   0.46791   1.000
    C259    C    0.60369   0.58077   0.46791   1.000
    C260    C    0.13870   0.13501   0.44766   1.000
    C261    C    0.13870   0.63501   0.44765   1.000
    C262    C    0.63870   0.13502   0.44766   1.000
    C263    C    0.63870   0.63501   0.44765   1.000
    C264    C    0.05800   0.17941   0.45426   1.000
    C265    C    0.05801   0.67941   0.45426   1.000
    C266    C    0.55800   0.17941   0.45426   1.000
    C267    C    0.55801   0.67941   0.45426   1.000
    C268    C    0.24958   0.14181   0.42215   1.000
    C269    C    0.24958   0.64180   0.42215   1.000
    C270    C    0.74958   0.14181   0.42215   1.000
    C271    C    0.74958   0.64180   0.42215   1.000
    C272    C    0.08694   0.23047   0.43690   1.000
    C273    C    0.08695   0.73046   0.43690   1.000
    C274    C    0.58694   0.23047   0.43690   1.000
    C275    C    0.58695   0.73046   0.43690   1.000
    C276    C    0.27947   0.19263   0.40419   1.000
    C277    C    0.27948   0.69262   0.40419   1.000
    C278    C    0.77947   0.19263   0.40419   1.000
    C279    C    0.77948   0.69262   0.40419   1.000
    C280    C    0.19854   0.23687   0.41248   1.000
    C281    C    0.19855   0.73686   0.41248   1.000
    C282    C    0.69854   0.23687   0.41248   1.000
    C283    C    0.69855   0.73686   0.41248   1.000
    C284    C    0.20697   0.30111   0.31908   1.000
    C285    C    0.20697   0.80111   0.31908   1.000
    C286    C    0.70697   0.30111   0.31908   1.000
    C287    C    0.70698   0.80111   0.31908   1.000
    C288    C    0.09959   0.32248   0.30160   1.000
    C289    C    0.09960   0.82247   0.30160   1.000
    C290    C    0.59960   0.32248   0.30160   1.000
    C291    C    0.59960   0.82247   0.30160   1.000
    C292    C    0.29244   0.27922   0.27830   1.000
    C293    C    0.29244   0.77921   0.27836   1.000
    C294    C    0.79244   0.27922   0.27830   1.000
    C295    C    0.79244   0.77921   0.27836   1.000
    C296    C    0.07846   0.32164   0.24220   1.000
    C297    C    0.07847   0.82163   0.24220   1.000
    C298    C    0.57846   0.32164   0.24220   1.000
    C299    C    0.57847   0.82163   0.24220   1.000
    C300    C    0.27084   0.27968   0.21943   1.000
    C301    C    0.27085   0.77967   0.21943   1.000
    C302    C    0.77084   0.27968   0.21943   1.000
    C303    C    0.77085   0.77967   0.21943   1.000
    C304    C    0.16366   0.30071   0.20083   1.000
    C305    C    0.16367   0.80071   0.20083   1.000
    C306    C    0.66366   0.30071   0.20083   1.000
    C307    C    0.66367   0.80071   0.20083   1.000
    C308    C    0.14277   0.30227   0.13650   1.000
    C309    C    0.14277   0.80226   0.13650   1.000
    C310    C    0.64277   0.30227   0.13655   1.000
    C311    C    0.64277   0.80226   0.13650   1.000
    C312    C    0.35372   0.16922   0.03207   1.000
    C313    C    0.35372   0.66922   0.03207   1.000
    C314    C    0.85372   0.16922   0.03207   1.000
    C315    C    0.85372   0.66922   0.03207   1.000
    C316    C    0.38874   0.11497   0.05229   1.000
    C317    C    0.38874   0.61497   0.05229   1.000
    C318    C    0.88874   0.11497   0.05229   1.000
    C319    C    0.88874   0.61497   0.05229   1.000
    C320    C    0.30800   0.07059   0.04572   1.000
    C321    C    0.30800   0.57059   0.04572   1.000
    C322    C    0.80800   0.07059   0.04572   1.000
    C323    C    0.80800   0.57059   0.04572   1.000
    C324    C    0.99964   0.10816   0.07779   1.000
    C325    C    0.99964   0.60816   0.07779   1.000
    C326    C    0.49964   0.10816   0.07779   1.000
    C327    C    0.49964   0.60816   0.07779   1.000
    C328    C    0.33691   0.01954   0.06310   1.000
    C329    C    0.33691   0.51953   0.06300   1.000
    C330    C    0.83691   0.01954   0.06310   1.000
    C331    C    0.83691   0.51953   0.06310   1.000
    C332    C    0.02950   0.05734   0.09576   1.000
    C333    C    0.02951   0.55734   0.09576   1.000
    C334    C    0.52950   0.05734   0.09576   1.000
    C335    C    0.52951   0.55734   0.09570   1.000
    C336    C    0.44853   0.01312   0.08700   1.000
    C337    C    0.44853   0.51312   0.08749   1.000
    C338    C    0.94853   0.01312   0.08700   1.000
    C339    C    0.94853   0.51312   0.08749   1.000
    C340    C    0.45693   0.44889   0.18092   1.000
    C341    C    0.45693   0.94889   0.18092   1.000
    C342    C    0.95693   0.44889   0.18092   1.000
    C343    C    0.95693   0.94889   0.18092   1.000
    C344    C    0.34957   0.42751   0.19838   1.000
    C345    C    0.34957   0.92750   0.19838   1.000
    C346    C    0.84957   0.42751   0.19838   1.000
    C347    C    0.84957   0.92750   0.19838   1.000
    C348    C    0.04237   0.47081   0.22165   1.000
    C349    C    0.04237   0.97080   0.22165   1.000
    C350    C    0.54237   0.47080   0.22165   1.000
    C351    C    0.54237   0.97080   0.22165   1.000
    C352    C    0.32842   0.42835   0.25775   1.000
    C353    C    0.32842   0.92834   0.25775   1.000
    C354    C    0.82842   0.42835   0.25775   1.000
    C355    C    0.82842   0.92834   0.25775   1.000
    C356    C    0.02076   0.47035   0.28058   1.000
    C357    C    0.02076   0.97034   0.28058   1.000
    C358    C    0.52076   0.47035   0.28058   1.000
    C359    C    0.52076   0.97034   0.28058   1.000
    C360    C    0.41359   0.44929   0.29910   1.000
    C361    C    0.41360   0.94928   0.29910   1.000
    C362    C    0.91360   0.44929   0.29910   1.000
    C363    C    0.91360   0.94928   0.29910   1.000
    C364    C    0.39272   0.44773   0.36344   1.000
    C365    C    0.39273   0.94773   0.36344   1.000
    C366    C    0.89273   0.44773   0.36344   1.000
    C367    C    0.89273   0.94773   0.36344   1.000
    S368    S    0.25911   0.19692   0.60590   1.000
    S369    S    0.25912   0.69692   0.60590   1.000
    S370    S    0.75911   0.19692   0.60590   1.000
    S371    S    0.75912   0.69692   0.60593   1.000
    S372    S    0.00914   0.05310   0.89401   1.000
    S373    S    0.00914   0.55309   0.89401   1.000
    S374    S    0.50914   0.05310   0.89401   1.000
    S375    S    0.50914   0.55309   0.89401   1.000
    S376    S    0.24088   0.30308   0.39404   1.000
    S377    S    0.24089   0.80308   0.39400   1.000
    S378    S    0.74089   0.30308   0.39404   1.000
    S379    S    0.74089   0.80308   0.39400   1.000
    S380    S    0.49086   0.44691   0.10596   1.000
    S381    S    0.49086   0.94691   0.10596   1.000
    S382    S    0.99086   0.44691   0.10596   1.000
    S383    S    0.99086   0.94691   0.10596   1.000
    O384    O    0.50509   0.42815   0.52474   1.000
    O385    O    0.50509   0.92815   0.52474   1.000
    O386    O    0.00000   0.42815   0.52474   1.000
    O387    O    0.00000   0.92815   0.52474   1.000
    O388    O    0.33744   0.15560   0.57240   1.000
    O389    O    0.33744   0.65559   0.57240   1.000
    O390    O    0.83744   0.15560   0.57240   1.000
    O391    O    0.83744   0.65559   0.57240   1.000
    O392    O    0.13073   0.19201   0.59974   1.000
    O393    O    0.13074   0.69201   0.59974   1.000
    O394    O    0.63074   0.19201   0.59974   1.000
    O395    O    0.63074   0.69201   0.59974   1.000
    O396    O    0.26557   0.19919   0.89527   1.000
    O397    O    0.26558   0.69919   0.89527   1.000
    O398    O    0.76558   0.19920   0.89527   1.000
    O399    O    0.76558   0.69919   0.89527   1.000
    O400    O    0.46398   0.19462   0.87998   1.000
    O401    O    0.46398   0.69462   0.87998   1.000
    O402    O    0.96398   0.19462   0.87998   1.000
    O403    O    0.96398   0.69462   0.87998   1.000
    O404    O    0.31252   0.45381   0.52468   1.000
    O405    O    0.31252   0.95381   0.52468   1.000
    O406    O    0.81252   0.45381   0.52468   1.000
    O407    O    0.81252   0.95381   0.52468   1.000
    O408    O    0.25506   0.32186   0.97523   1.000
    O409    O    0.25506   0.82186   0.97520   1.000
    O410    O    0.75506   0.32186   0.97523   1.000
    O411    O    0.75506   0.82186   0.97524   1.000
    O412    O    0.08747   0.09442   0.92755   1.000
    O413    O    0.08747   0.59442   0.92755   1.000
    O414    O    0.58747   0.09442   0.92755   1.000
    O415    O    0.58747   0.59442   0.92755   1.000
    O416    O    0.38076   0.05801   0.90020   1.000
    O417    O    0.38076   0.55800   0.90020   1.000
    O418    O    0.88076   0.05801   0.90020   1.000
    O419    O    0.88077   0.55800   0.90020   1.000
    O420    O    0.01560   0.05082   0.60469   1.000
    O421    O    0.01561   0.55082   0.60469   1.000
    O422    O    0.51560   0.05082   0.60460   1.000
    O423    O    0.51560   0.55082   0.60469   1.000
    O424    O    0.21401   0.05539   0.61998   1.000
    O425    O    0.21402   0.55539   0.61998   1.000
    O426    O    0.71401   0.05539   0.61998   1.000
    O427    O    0.71402   0.55539   0.61998   1.000
    O428    O    0.06250   0.29620   0.97529   1.000
    O429    O    0.06250   0.79619   0.97529   1.000
    O430    O    0.56250   0.29620   0.97529   1.000
    O431    O    0.56250   0.79619   0.97529   1.000
    O432    O    0.99490   0.07185   0.47523   1.000
    O433    O    0.99490   0.57185   0.47523   1.000
    O434    O    0.49491   0.07185   0.47523   1.000
    O435    O    0.49491   0.57185   0.47523   1.000
    O436    O    0.16256   0.34440   0.42758   1.000
    O437    O    0.16256   0.84440   0.42758   1.000
    O438    O    0.66256   0.34440   0.42758   1.000
    O439    O    0.66256   0.84440   0.42750   1.000
    O440    O    0.36926   0.30799   0.40023   1.000
    O441    O    0.36927   0.80799   0.40023   1.000
    O442    O    0.86926   0.30799   0.40023   1.000
    O443    O    0.86927   0.80799   0.40023   1.000
    O444    O    0.23442   0.30081   0.10470   1.000
    O445    O    0.23442   0.80081   0.10470   1.000
    O446    O    0.73442   0.30081   0.10470   1.000
    O447    O    0.73442   0.80081   0.10470   1.000
    O448    O    0.03601   0.30538   0.11999   1.000
    O449    O    0.03602   0.80538   0.11999   1.000
    O450    O    0.53602   0.30538   0.11999   1.000
    O451    O    0.53602   0.80538   0.11999   1.000
    O452    O    0.18747   0.04619   0.47529   1.000
    O453    O    0.18747   0.54619   0.47529   1.000
    O454    O    0.68747   0.04619   0.47500   1.000
    O455    O    0.68747   0.54619   0.47529   1.000
    O456    O    0.24493   0.17814   0.02474   1.000
    O457    O    0.24493   0.67814   0.02474   1.000
    O458    O    0.74493   0.17815   0.02474   1.000
    O459    O    0.74493   0.67814   0.02474   1.000
    O460    O    0.41253   0.40558   0.07242   1.000
    O461    O    0.41253   0.90558   0.07242   1.000
    O462    O    0.91253   0.40558   0.07242   1.000
    O463    O    0.91253   0.90558   0.07242   1.000
    O464    O    0.11924   0.44200   0.09970   1.000
    O465    O    0.11924   0.94199   0.09977   1.000
    O466    O    0.61924   0.44200   0.09970   1.000
    O467    O    0.61924   0.94199   0.09977   1.000
    O468    O    0.48439   0.44918   0.39529   1.000
    O469    O    0.48439   0.94918   0.39529   1.000
    O470    O    0.98439   0.44918   0.39529   1.000
    O471    O    0.98439   0.94918   0.39529   1.000
    O472    O    0.28598   0.44461   0.37999   1.000
    O473    O    0.28598   0.94461   0.37999   1.000
    O474    O    0.78598   0.44461   0.37999   1.000
    O475    O    0.78598   0.94461   0.37999   1.000
    O476    O    0.43749   0.20381   0.02468   1.000
    O477    O    0.43749   0.70380   0.02468   1.000
    O478    O    0.93749   0.20381   0.02468   1.000
    O479    O    0.93749   0.70380   0.02468   1.000
loop_
    _geom_bond_atom_site_label_1
    _geom_bond_atom_site_label_2
    _geom_bond_distance
    _geom_bond_site_symmetry_2
    _ccdc_geom_bond_type
    O479   C315      1.28957      .   S
    O478   C314      1.28955      .   S
    O477   C313      1.28958      .   S
    O476   C312      1.28954      .   S
    O456   C312      1.26081      .   S
    O457   C313      1.26082      .   S
    O458   C314      1.26081      .   S
    O459   C315      1.26082      .   S
    H112   C320      1.08716      .   S
    H113   C321      1.08717      .   S
    H114   C322      1.08716      .   S
    H115   C323      1.08716      .   S
    C315   C319      1.50850      .   S
    C314   C318      1.50852      .   S
    C312   C316      1.50855      .   S
    C313   C317      1.50850      .   S
    Ca4    O444      2.28811      .   S
    Ca4    O450      2.33758      .   S
    Ca5    O445      2.28811      .   S
    Ca5    O451      2.33759      .   S
    Ca6    O446      2.28811      .   S
    Ca6    O448      2.33757  1_655   S
    Ca7    O447      2.28811      .   S
    Ca7    O449      2.33757  1_655   S
    C320   C316      1.40019      .   S
    C320   C328      1.39198      .   S
    C321   C317      1.40019      .   S
    C321   C329      1.39102      .   S
    C322   C318      1.40020      .   S
    C322   C330      1.39198      .   S
    C323   C319      1.40020      .   S
    C323   C331      1.39198      .   S
    C319   C325      1.40270      .   S
    C318   C324      1.40268      .   S
    C317   C327      1.40273      .   S
    C316   C326      1.40269      .   S
    H120   C329      1.08715      .   S
    H121   C328      1.08723  1_565   S
    H122   C331      1.08716      .   S
    H123   C330      1.08724  1_565   S
    C329   C337      1.39827      .   S
    C331   C339      1.39730      .   S
    C330   C338      1.39255      .   S
    C328   C336      1.39256      .   S
    O461   S381      1.47252      .   S
    O463   S383      1.47252      .   S
    O462   S382      1.47252      .   S
    O460   S380      1.47252      .   S
    C327   H119      1.08988      .   S
    C327   C335      1.39447      .   S
    C326   H118      1.08988      .   S
    C326   C334      1.39504      .   S
    C324   H116      1.08991  1_655   S
    C324   C332      1.39504  1_655   S
    C325   H117      1.08989  1_655   S
    C325   C333      1.39504  1_655   S
    C338   C332      1.40000  1_655   S
    C338   S383      1.78633  1_545   S
    C336   C334      1.40000      .   S
    C336   S381      1.78633  1_545   S
    C339   C333      1.39960  1_655   S
    C339   S382      1.78201      .   S
    C337   C335      1.39958      .   S
    C337   S380      1.78201      .   S
    C335   H127      1.07951      .   S
    C332   H124      1.08768      .   S
    C333   H125      1.07894      .   S
    C334   H126      1.08769      .   S
    O464   S382      1.45753  1_455   S
    O466   S380      1.45755      .   S
    O465   S383      1.45740  1_455   S
    O467   S381      1.45741      .   S
    O447   C311      1.26739      .   S
    O444   C308      1.26739      .   S
    O445   C309      1.26738      .   S
    O446   C310      1.26806      .   S
    S382   C342      1.77575      .   S
    S380   C340      1.77575      .   S
    S381   C341      1.77575      .   S
    S383   C343      1.77575      .   S
    O451   C311      1.26831      .   S
    O450   C310      1.26866      .   S
    O449   C309      1.26833      .   S
    O448   C308      1.26831      .   S
    C308   C304      1.51747      .   S
    C309   C305      1.51746      .   S
    C311   C307      1.51748      .   S
    C310   C306      1.51634      .   S
    H128   C344      1.08891      .   S
    H131   C347      1.08891      .   S
    H130   C346      1.08890      .   S
    H129   C345      1.08890      .   S
    C342   C346      1.39862      .   S
    C342   C348      1.40065  1_655   S
    C340   C344      1.39861      .   S
    C340   C350      1.40067      .   S
    C341   C345      1.39861      .   S
    C341   C351      1.40067      .   S
    C343   C347      1.39861      .   S
    C343   C349      1.40065  1_655   S
    H110   C302      1.08936      .   S
    H111   C303      1.08936      .   S
    H109   C301      1.08935      .   S
    H108   C300      1.08936      .   S
    C347   C355      1.39604      .   S
    C346   C354      1.39604      .   S
    C345   C353      1.39604      .   S
    C344   C352      1.39604      .   S
    C306   C302      1.40256      .   S
    C306   C298      1.40172      .   S
    C305   C301      1.40256      .   S
    C305   C297      1.40171      .   S
    C304   C300      1.40255      .   S
    C304   C296      1.40172      .   S
    C307   C303      1.40255      .   S
    C307   C299      1.40171      .   S
    H133   C349      1.08809      .   S
    H132   C348      1.08808      .   S
    H134   C350      1.08808      .   S
    H135   C351      1.08809      .   S
    C303   C295      1.39104      .   S
    C302   C294      1.38966      .   S
    C301   C293      1.39105      .   S
    C300   C292      1.38967      .   S
    C351   C359      1.39114      .   S
    C350   C358      1.39113      .   S
    C349   C357      1.39114      .   S
    C348   C356      1.39113      .   S
    H105   C299      1.08795      .   S
    H106   C296      1.08793  1_655   S
    H107   C297      1.08794  1_655   S
    H104   C298      1.08795      .   S
    C299   C291      1.39663      .   S
    C298   C290      1.39663      .   S
    C297   C289      1.39663      .   S
    C296   C288      1.39663      .   S
    C352   H136      1.08819      .   S
    C352   C360      1.40120      .   S
    C353   H137      1.08743      .   S
    C353   C361      1.40120      .   S
    C354   H138      1.08820      .   S
    C354   C362      1.40120      .   S
    C355   H139      1.08742      .   S
    C355   C363      1.40121      .   S
    C292   H100      1.08799      .   S
    C292   C284      1.40163      .   S
    C294   H102      1.08798      .   S
    C294   C286      1.40163      .   S
    C293   H101      1.08807      .   S
    C293   C285      1.40076      .   S
    C295   H103      1.08808      .   S
    C295   C287      1.40075      .   S
    C359   C361      1.40206      .   S
    C359   H143      1.08926      .   S
    C357   C363      1.40204  1_455   S
    C357   H141      1.08926      .   S
    C358   C360      1.40206      .   S
    C358   H142      1.08926      .   S
    C356   C362      1.40204  1_455   S
    C356   H140      1.08926      .   S
    C363   C367      1.51773      .   S
    C362   C366      1.51773      .   S
    C360   C364      1.51774      .   S
    C361   C365      1.51772      .   S
    C289   C285      1.39864      .   S
    C289   H97       1.08893      .   S
    C291   C287      1.39863      .   S
    C291   H99       1.08893      .   S
    C290   C286      1.39862      .   S
    C290   H98       1.08894      .   S
    C288   C284      1.39862      .   S
    C288   H96       1.08894      .   S
    C287   S379      1.77475      .   S
    C286   S378      1.77566      .   S
    C285   S377      1.77475      .   S
    C284   S376      1.77566      .   S
    C365   O473      1.26860      .   S
    C365   O469      1.26807      .   S
    C367   O475      1.26860      .   S
    C367   O471      1.26807      .   S
    C366   O474      1.26860      .   S
    C366   O470      1.26807      .   S
    C364   O472      1.26859      .   S
    C364   O468      1.26808      .   S
    O474   Ca2       2.33785      .   S
    O473   Ca1       2.33784      .   S
    O472   Ca0       2.33784      .   S
    O475   Ca3       2.33784      .   S
    H92    C276      1.08768      .   S
    H95    C279      1.08766      .   S
    H94    C278      1.08769      .   S
    H93    C277      1.08764      .   S
    S379   O443      1.45746      .   S
    S379   C283      1.78230      .   S
    S379   O439      1.47212      .   S
    S377   O441      1.45746      .   S
    S377   C281      1.78232      .   S
    S377   O437      1.47293      .   S
    S376   O440      1.45738      .   S
    S376   C280      1.78196      .   S
    S376   O436      1.47252      .   S
    S378   O442      1.45739      .   S
    S378   C282      1.78196      .   S
    S378   O438      1.47252      .   S
    O470   Ca0       2.28800  1_655   S
    O471   Ca1       2.28800  1_655   S
    O468   Ca2       2.28801      .   S
    O469   Ca3       2.28802      .   S
    C276   C280      1.39964      .   S
    C276   C268      1.39509      .   S
    C277   C281      1.39964      .   S
    C277   C269      1.39510      .   S
    C278   C282      1.39962      .   S
    C278   C270      1.39506      .   S
    C279   C283      1.39964      .   S
    C279   C271      1.39510      .   S
    C280   C272      1.39740      .   S
    C281   C273      1.39736      .   S
    C282   C274      1.39742      .   S
    C283   C275      1.39738      .   S
    H87    C271      1.08990      .   S
    H86    C270      1.08989      .   S
    H85    C269      1.08990      .   S
    H84    C268      1.08988      .   S
    C270   C262      1.40263      .   S
    C268   C260      1.40265      .   S
    C271   C263      1.40257      .   S
    C269   C261      1.40259      .   S
    C275   H91       1.08713      .   S
    C275   C267      1.39200      .   S
    C274   H90       1.08712      .   S
    C274   C266      1.39194      .   S
    C273   H89       1.08713      .   S
    C273   C265      1.39200      .   S
    C272   H88       1.08714      .   S
    C272   C264      1.39197      .   S
    C263   C267      1.40018      .   S
    C263   C259      1.50856      .   S
    C261   C265      1.40019      .   S
    C261   C257      1.50841      .   S
    C262   C266      1.40018      .   S
    C262   C258      1.50860      .   S
    C260   C264      1.40019      .   S
    C260   C256      1.50853      .   S
    C267   H81       1.08668      .   S
    C266   H80       1.08720      .   S
    C265   H83       1.08666  1_455   S
    C264   H82       1.08666  1_455   S
    C257   O433      1.26087  1_455   S
    C257   O453      1.28962      .   S
    C256   O432      1.26080  1_455   S
    C256   O452      1.28954      .   S
    C258   O454      1.28803      .   S
    C258   O434      1.26079      .   S
    C259   O435      1.26082      .   S
    C259   O455      1.28955      .   S
    O405   C145      1.28953      .   S
    O407   C147      1.28956      .   S
    O406   C146      1.28955      .   S
    O404   C144      1.28955      .   S
    O387   C147      1.20507  1_455   S
    O386   C146      1.20507  1_455   S
    O385   C145      1.26079      .   S
    O384   C144      1.26081      .   S
    H19    C153      1.08719      .   S
    H18    C152      1.08719      .   S
    H17    C155      1.08707  1_455   S
    H16    C154      1.08718  1_455   S
    C144   C148      1.50850      .   S
    C145   C149      1.50861      .   S
    C146   C150      1.50855      .   S
    C147   C151      1.50856      .   S
    Ca8    O422      2.28687      .   S
    Ca8    O424      2.33785      .   S
    Ca11   O421      2.28812  1_655   S
    Ca11   O427      2.33785      .   S
    Ca10   O420      2.28813  1_655   S
    Ca10   O426      2.33785      .   S
    Ca9    O423      2.28813      .   S
    Ca9    O425      2.33785      .   S
    C155   C151      1.40020      .   S
    C155   C163      1.39200      .   S
    C154   C150      1.40020      .   S
    C154   C162      1.39194      .   S
    C153   C149      1.40019      .   S
    C153   C161      1.39194      .   S
    C152   C148      1.40020      .   S
    C152   C160      1.39197      .   S
    C148   C156      1.40267      .   S
    C149   C157      1.40263      .   S
    C150   C158      1.40266      .   S
    C151   C159      1.40261      .   S
    H27    C163      1.08714      .   S
    H26    C162      1.08714      .   S
    H25    C161      1.08713      .   S
    H24    C160      1.08713      .   S
    C160   C168      1.39738      .   S
    C161   C169      1.39742      .   S
    C162   C170      1.39739      .   S
    C163   C171      1.39656      .   S
    O389   S369      1.47214      .   S
    O388   S368      1.47213      .   S
    O391   S371      1.47244      .   S
    O390   S370      1.47214      .   S
    C157   H21       1.08988      .   S
    C157   C165      1.39509      .   S
    C158   H22       1.08989      .   S
    C158   C166      1.39509      .   S
    C159   H23       1.08989      .   S
    C159   C167      1.39503      .   S
    C156   H20       1.08988      .   S
    C156   C164      1.39433      .   S
    C171   C167      1.39971      .   S
    C171   S371      1.78268      .   S
    C169   C165      1.39964      .   S
    C169   S369      1.78165      .   S
    C168   C164      1.39958      .   S
    C168   S368      1.78168      .   S
    C170   C166      1.39962      .   S
    C170   S370      1.78168      .   S
    C164   H28       1.08846      .   S
    C166   H30       1.08768      .   S
    C167   H31       1.08770      .   S
    C165   H29       1.08769      .   S
    O392   S368      1.45733      .   S
    O395   S371      1.45740      .   S
    O394   S370      1.45733      .   S
    O393   S369      1.45734      .   S
    O422   C254      1.26916      .   S
    O423   C255      1.26795      .   S
    O421   C253      1.26795      .   S
    O420   C252      1.26794      .   S
    S370   C174      1.77634      .   S
    S368   C172      1.77634      .   S
    S369   C173      1.77634      .   S
    S371   C175      1.77566      .   S
    O427   C255      1.26861      .   S
    O426   C254      1.26860      .   S
    O425   C253      1.26860      .   S
    O424   C252      1.26860      .   S
    C253   C249      1.51657      .   S
    C252   C248      1.51657      .   S
    C255   C251      1.51656      .   S
    C254   C250      1.51656      .   S
    H33    C177      1.08939      .   S
    H34    C178      1.08939      .   S
    H35    C179      1.08939      .   S
    H32    C176      1.08895      .   S
    C173   C177      1.39862      .   S
    C173   C181      1.40063      .   S
    C174   C178      1.39861      .   S
    C174   C182      1.40077      .   S
    C175   C179      1.39861      .   S
    C175   C183      1.40062      .   S
    C172   C176      1.39861      .   S
    C172   C180      1.40077      .   S
    H78    C246      1.08925      .   S
    H76    C244      1.08926      .   S
    H77    C245      1.08925      .   S
    H79    C247      1.08925      .   S
    C179   C187      1.39617      .   S
    C178   C186      1.39617      .   S
    C177   C185      1.39616      .   S
    C176   C184      1.39617      .   S
    C249   C247      1.40245  1_455   S
    C249   C241      1.40194      .   S
    C251   C245      1.40246      .   S
    C251   C243      1.40195      .   S
    C250   C244      1.40246      .   S
    C250   C242      1.40195      .   S
    C248   C246      1.40245  1_455   S
    C248   C240      1.40195      .   S
    H39    C183      1.08882      .   S
    H37    C181      1.08806      .   S
    H36    C180      1.08806      .   S
    H38    C182      1.08807      .   S
    C244   C236      1.39113      .   S
    C245   C237      1.39113      .   S
    C246   C238      1.39113      .   S
    C247   C239      1.39113      .   S
    C181   C189      1.39126      .   S
    C183   C191      1.39126      .   S
    C182   C190      1.39103      .   S
    C180   C188      1.39104      .   S
    H75    C243      1.08819      .   S
    H72    C240      1.08818      .   S
    H73    C241      1.08820      .   S
    H74    C242      1.08818      .   S
    C243   C235      1.39603      .   S
    C242   C234      1.39604      .   S
    C241   C233      1.39603      .   S
    C240   C232      1.39603      .   S
    C184   H42       1.08812      .   S
    C184   C192      1.40202      .   S
    C185   H43       1.08812      .   S
    C185   C193      1.40203      .   S
    C186   H40       1.08810  1_655   S
    C186   C194      1.40201      .   S
    C187   H41       1.08810  1_655   S
    C187   C195      1.40202      .   S
    C239   H71       1.08808      .   S
    C239   C229      1.39994  1_655   S
    C238   H70       1.08808      .   S
    C238   C228      1.39994  1_655   S
    C237   H69       1.08808      .   S
    C237   C231      1.39995      .   S
    C236   H68       1.08808      .   S
    C236   C230      1.39995      .   S
    C191   C195      1.40255      .   S
    C191   H47       1.08938      .   S
    C190   C194      1.40255      .   S
    C190   H46       1.08937      .   S
    C189   C193      1.40253      .   S
    C189   H45       1.08938      .   S
    C188   C192      1.40255      .   S
    C188   H44       1.08936      .   S
    C195   C199      1.51654      .   S
    C194   C198      1.51656      .   S
    C193   C197      1.51656      .   S
    C192   C196      1.51655      .   S
    C232   C228      1.39822      .   S
    C232   H64       1.08890      .   S
    C233   C229      1.39822      .   S
    C233   H65       1.08890      .   S
    C234   C230      1.39821      .   S
    C234   H66       1.08892      .   S
    C235   C231      1.39821      .   S
    C235   H67       1.08891      .   S
    C228   S372      1.77688      .   S
    C231   S375      1.77688      .   S
    C230   S374      1.77688      .   S
    C229   S373      1.77688      .   S
    C196   O400      1.26858      .   S
    C196   O396      1.26795      .   S
    C197   O401      1.26857      .   S
    C197   O397      1.26795      .   S
    C198   O402      1.26859      .   S
    C198   O398      1.26794      .   S
    C199   O403      1.26859      .   S
    C199   O399      1.26795      .   S
    O401   Ca15      2.33777      .   S
    O402   Ca12      2.33776  1_655   S
    O403   Ca13      2.33776  1_655   S
    O400   Ca14      2.33778      .   S
    H60    C220      1.08765      .   S
    H61    C221      1.08768      .   S
    H62    C222      1.08765      .   S
    H63    C223      1.08767      .   S
    S372   O418      1.45739  1_455   S
    S372   C225      1.78210  1_545   S
    S372   O412      1.47249      .   S
    S373   O419      1.45740  1_455   S
    S373   C224      1.78195      .   S
    S373   O413      1.47251      .   S
    S374   O416      1.45741      .   S
    S374   C227      1.78207  1_545   S
    S374   O414      1.47249      .   S
    S375   O417      1.45741      .   S
    S375   C226      1.78195      .   S
    S375   O415      1.47252      .   S
    O398   Ca14      2.28823      .   S
    O397   Ca13      2.28821      .   S
    O396   Ca12      2.28822      .   S
    O399   Ca15      2.28821      .   S
    C220   C226      1.39961      .   S
    C220   C212      1.39508      .   S
    C223   C225      1.39961  1_655   S
    C223   C215      1.39405  1_655   S
    C222   C224      1.39959  1_655   S
    C222   C214      1.39408  1_655   S
    C221   C227      1.39961      .   S
    C221   C213      1.39503      .   S
    C225   C217      1.39741      .   S
    C226   C218      1.39739      .   S
    C224   C216      1.39739      .   S
    C227   C219      1.39741      .   S
    H54    C214      1.08723  1_655   S
    H52    C212      1.08988      .   S
    H55    C215      1.08720  1_655   S
    H53    C213      1.08991      .   S
    C214   C204      1.40625      .   S
    C213   C207      1.40268      .   S
    C212   C206      1.40262      .   S
    C215   C205      1.40554      .   S
    C219   H58       1.08723  1_565   S
    C219   C211      1.39198      .   S
    C218   H59       1.08715      .   S
    C218   C210      1.39200      .   S
    C217   H56       1.08723  1_565   S
    C217   C209      1.39200      .   S
    C216   H57       1.08715      .   S
    C216   C208      1.39200      .   S
    C205   C209      1.40020      .   S
    C205   C201      1.50929      .   S
    C204   C208      1.40020      .   S
    C204   C200      1.50862      .   S
    C206   C210      1.40020      .   S
    C206   C202      1.50862      .   S
    C207   C211      1.40020      .   S
    C207   C203      1.50851      .   S
    C211   H51       1.08707      .   S
    C210   H50       1.08706      .   S
    C209   H49       1.08706      .   S
    C208   H48       1.08706      .   S
    C203   O411      1.26084      .   S
    C203   O431      1.28956      .   S
    C201   O409      1.26070      .   S
    C201   O429      1.28956      .   S
    C202   O410      1.26079      .   S
    C202   O430      1.28953      .   S
    C200   O408      1.26079      .   S
    C200   O428      1.28953      .   S
    O384   Ca2       2.36463      .   S
    O385   Ca3       2.36466      .   S
    O386   Ca0       2.40355      .   S
    O387   Ca1       2.40357      .   S
    O388   Ca8       2.48256      .   S
    O389   Ca9       2.48253      .   S
    O390   Ca10      2.48253      .   S
    O391   Ca11      2.48251      .   S
    O404   Ca0       2.47442      .   S
    O404   Ca9       2.42801      .   S
    O405   Ca1       2.47442      .   S
    O405   Ca8       2.42814  1_565   S
    O406   Ca2       2.47443      .   S
    O406   Ca11      2.42801      .   S
    O407   Ca3       2.47443      .   S
    O407   Ca10      2.42814  1_565   S
    O408   Ca4       2.36510  1_556   S
    O409   Ca5       2.36561  1_556   S
    O410   Ca6       2.36510  1_556   S
    O411   Ca7       2.36495  1_556   S
    O412   Ca12      2.48245      .   S
    O413   Ca13      2.48245      .   S
    O414   Ca14      2.48245      .   S
    O415   Ca15      2.48245      .   S
    O428   Ca6       2.47476  1_456   S
    O428   Ca12      2.42803      .   S
    O429   Ca7       2.47475  1_456   S
    O429   Ca13      2.42798      .   S
    O430   Ca4       2.47477  1_556   S
    O430   Ca14      2.42803      .   S
    O431   Ca5       2.47477  1_556   S
    O431   Ca15      2.42798      .   S
    O432   Ca10      2.36464      .   S
    O433   Ca11      2.36461      .   S
    O434   Ca8       2.36467      .   S
    O435   Ca9       2.36465      .   S
    O436   Ca0       2.48253      .   S
    O437   Ca1       2.48256      .   S
    O438   Ca2       2.48253      .   S
    O439   Ca3       2.48277      .   S
    O452   Ca1       2.42816  1_545   S
    O452   Ca8       2.47443      .   S
    O453   Ca0       2.42803      .   S
    O453   Ca9       2.47444      .   S
    O454   Ca3       2.42774  1_545   S
    O454   Ca10      2.47881      .   S
    O455   Ca2       2.42803      .   S
    O455   Ca11      2.47444      .   S
    O456   Ca12      2.36496  1_554   S
    O457   Ca13      2.36494  1_554   S
    O458   Ca14      2.36495  1_554   S
    O459   Ca15      2.36495  1_554   S
    O460   Ca4       2.48240      .   S
    O461   Ca5       2.48240      .   S
    O462   Ca6       2.48240      .   S
    O463   Ca7       2.48240      .   S
    O476   Ca4       2.42799      .   S
    O476   Ca14      2.47466  1_554   S
    O477   Ca5       2.42801      .   S
    O477   Ca15      2.47465  1_554   S
    O478   Ca6       2.42799      .   S
    O478   Ca12      2.47464  1_654   S
    O479   Ca7       2.42801      .   S
    O479   Ca13      2.47465  1_654   S
