# CIF file generated by openbabel 2.4.90, see http://openbabel.sf.net
data_I
_chemical_name_common ''
_cell_length_a 7.3135
_cell_length_b 19.286
_cell_length_c 21.745
_cell_angle_alpha 90.005
_cell_angle_beta 90.014
_cell_angle_gamma 91.651
_space_group_name_H-M_alt 'P 1'
_space_group_name_Hall 'P 1'
loop_
    _symmetry_equiv_pos_as_xyz
    x,y,z
loop_
    _atom_site_label
    _atom_site_type_symbol
    _atom_site_fract_x
    _atom_site_fract_y
    _atom_site_fract_z
    _atom_site_occupancy
    N0      N    0.43652   0.74380   0.53041   1.000
    N1      N    0.89074   0.97147   0.66496   1.000
    N2      N    0.63702   0.47810   0.16763   1.000
    N3      N    0.60842   0.02842   0.16485   1.000
    N4      N    0.99998   0.99998   0.00009   1.000
    N5      N    0.00003   0.49995   0.00003   1.000
    N6      N    0.50002   0.99980   0.50003   1.000
    N7      N    0.13679   0.47840   0.33210   1.000
    N8      N    0.10900   0.02846   0.33587   1.000
    N9      N    0.39120   0.97155   0.83540   1.000
    N10     N    0.50324   0.49976   0.50066   1.000
    N11     N    0.56422   0.25606   0.46981   1.000
    N12     N    0.93652   0.74439   0.97056   1.000
    N13     N    0.36262   0.52170   0.83244   1.000
    N14     N    0.06349   0.25547   0.02913   1.000
    N15     N    0.86300   0.52171   0.66849   1.000
    Zr16    Zr   0.58359   0.11499   0.33512   1.000
    O17     O    0.55617   0.07619   0.38980   1.000
    O18     O    0.60963   0.09775   0.27832   1.000
    O19     O    0.59068   0.16753   0.37027   1.000
    O20     O    0.42225   0.09780   0.32839   1.000
    Zr21    Zr   0.39925   0.60825   0.66547   1.000
    O22     O    0.42997   0.57132   0.61063   1.000
    O23     O    0.39880   0.65947   0.63017   1.000
    O24     O    0.37047   0.59128   0.72167   1.000
    O25     O    0.55809   0.59126   0.67305   1.000
    Zr26    Zr   0.41699   0.88499   0.66525   1.000
    O27     O    0.44421   0.92365   0.61045   1.000
    O28     O    0.57804   0.90221   0.67231   1.000
    O29     O    0.40989   0.83244   0.63003   1.000
    O30     O    0.39063   0.90223   0.72198   1.000
    Zr31    Zr   0.60097   0.39180   0.33488   1.000
    O32     O    0.57266   0.42854   0.39009   1.000
    O33     O    0.62954   0.40867   0.27857   1.000
    O34     O    0.60154   0.34053   0.37012   1.000
    O35     O    0.44201   0.40884   0.32732   1.000
    Zr36    Zr   0.91768   0.88524   0.83545   1.000
    O37     O    0.91030   0.83276   0.87079   1.000
    O38     O    0.07856   0.90239   0.82836   1.000
    O39     O    0.89098   0.90237   0.77869   1.000
    O40     O    0.94553   0.92405   0.88991   1.000
    Zr41    Zr   0.03248   0.74729   0.73176   1.000
    O42     O    0.96272   0.81614   0.71388   1.000
    O43     O    0.95386   0.67816   0.71448   1.000
    O44     O    0.14124   0.67818   0.76310   1.000
    O45     O    0.16957   0.74637   0.67160   1.000
    O46     O    0.15031   0.81617   0.76355   1.000
    O47     O    0.98205   0.74654   0.80598   1.000
    Zr48    Zr   0.08301   0.11451   0.16546   1.000
    O49     O    0.10939   0.09750   0.22235   1.000
    O50     O    0.05490   0.07577   0.11073   1.000
    O51     O    0.92177   0.09745   0.17228   1.000
    O52     O    0.09016   0.16702   0.12975   1.000
    Zr53    Zr   0.53246   0.74736   0.76906   1.000
    O54     O    0.45373   0.67823   0.78642   1.000
    O55     O    0.46280   0.81621   0.78686   1.000
    O56     O    0.48206   0.74642   0.69492   1.000
    O57     O    0.65021   0.81619   0.73720   1.000
    O58     O    0.66954   0.74659   0.82930   1.000
    O59     O    0.64135   0.67820   0.73780   1.000
    Zr60    Zr   0.96766   0.25277   0.26834   1.000
    O61     O    0.01806   0.25343   0.19405   1.000
    O62     O    0.04619   0.32195   0.28574   1.000
    O63     O    0.85872   0.32178   0.23699   1.000
    O64     O    0.84968   0.18387   0.23659   1.000
    O65     O    0.83072   0.25364   0.32854   1.000
    O66     O    0.03729   0.18391   0.28665   1.000
    Zr67    Zr   0.10157   0.39149   0.16459   1.000
    O68     O    0.94242   0.40848   0.17214   1.000
    O69     O    0.12988   0.40865   0.22089   1.000
    O70     O    0.07217   0.42851   0.10984   1.000
    O71     O    0.10175   0.34013   0.12921   1.000
    Zr72    Zr   0.46744   0.25259   0.23149   1.000
    O73     O    0.34965   0.18380   0.26362   1.000
    O74     O    0.51808   0.25353   0.30550   1.000
    O75     O    0.54608   0.32167   0.21395   1.000
    O76     O    0.53704   0.18375   0.21356   1.000
    O77     O    0.33042   0.25332   0.17102   1.000
    O78     O    0.35855   0.32184   0.26270   1.000
    Zr79    Zr   0.89917   0.60847   0.83565   1.000
    O80     O    0.89874   0.65978   0.87092   1.000
    O81     O    0.87054   0.59140   0.77942   1.000
    O82     O    0.05792   0.59142   0.82804   1.000
    O83     O    0.92831   0.57144   0.89034   1.000
loop_
    _geom_bond_atom_site_label_1
    _geom_bond_atom_site_label_2
    _geom_bond_distance
    _geom_bond_site_symmetry_2
    _ccdc_geom_bond_type
    Zr16   O17       1.41621      .   S
    N6     O17       2.83737  1_565   S
    Zr16   O18       1.29456      .   S
    N3     O18       2.80634      .   S
    Zr16   O19       1.26901      .   S
    N11    O19       2.76695      .   S
    Zr16   O20       1.22516      .   S
    N8     O20       2.62433      .   S
    Zr21   O22       1.41016      .   S
    N10    O22       2.82009      .   S
    Zr21   O23       1.25116      .   S
    N0     O23       2.72052      .   S
    Zr21   O24       1.28114      .   S
    N13    O24       2.75713      .   S
    Zr21   O25       1.22718      .   S
    N15    O25       2.63701      .   S
    Zr26   O27       1.41665      .   S
    N6     O27       2.83820      .   S
    Zr26   O28       1.22416      .   S
    N1     O28       2.61999      .   S
    Zr26   O29       1.27015      .   S
    N0     O29       2.76980      .   S
    Zr26   O30       1.29355      .   S
    N9     O30       2.80530      .   S
    Zr31   O32       1.41222      .   S
    N10    O32       2.82247      .   S
    Zr31   O33       1.28265      .   S
    N2     O33       2.75898      .   S
    Zr31   O34       1.25105      .   S
    N11    O34       2.72074      .   S
    Zr31   O35       1.22824      .   S
    N7     O35       2.63931      .   S
    Zr36   O37       1.27079      .   S
    N12    O37       2.76911      .   S
    Zr36   O38       1.22281  1_655   S
    N9     O38       2.61813      .   S
    Zr36   O39       1.29392      .   S
    N1     O39       2.80954      .   S
    Zr36   O40       1.41241      .   S
    N4     O40       2.82982  1_554   S
    Zr41   O42       1.48785  1_455   S
    N1     O42       3.23638      .   S
    Zr41   O43       1.48498  1_455   S
    N15    O43       3.22939      .   S
    Zr41   O44       1.71309      .   S
    N13    O44       3.77933      .   S
    Zr41   O45       1.64877      .   S
    N0     O45       3.63987      .   S
    Zr41   O46       1.70843      .   S
    N9     O46       3.77080      .   S
    Zr41   O47       1.65567  1_455   S
    N12    O47       3.59449      .   S
    Zr48   O49       1.29565      .   S
    N8     O49       2.80484      .   S
    Zr48   O50       1.41684      .   S
    N4     O50       2.83759  1_665   S
    Zr48   O51       1.22415  1_455   S
    N3     O51       2.62187      .   S
    Zr48   O52       1.27603      .   S
    N14    O52       2.78482      .   S
    Zr53   O54       1.48582      .   S
    N13    O54       3.23160      .   S
    Zr53   O55       1.48717      .   S
    N9     O55       3.23318      .   S
    Zr53   O56       1.65387      .   S
    N0     O56       3.59281      .   S
    Zr53   O57       1.70830      .   S
    N1     O57       3.77224      .   S
    Zr53   O58       1.64957      .   S
    N12    O58       3.64033      .   S
    Zr53   O59       1.71372      .   S
    N15    O59       3.78024      .   S
    Zr60   O61       1.65699  1_655   S
    N14    O61       3.60178      .   S
    Zr60   O62       1.48611  1_655   S
    N7     O62       3.23168      .   S
    Zr60   O63       1.71235      .   S
    N2     O63       3.77804      .   S
    Zr60   O64       1.70904      .   S
    N3     O64       3.77186      .   S
    Zr60   O65       1.64865      .   S
    N11    O65       3.63950      .   S
    Zr60   O66       1.49011  1_655   S
    N8     O66       3.24035      .   S
    Zr67   O68       1.22930  1_455   S
    N2     O68       2.64077      .   S
    Zr67   O69       1.28331      .   S
    N7     O69       2.76686      .   S
    Zr67   O70       1.40797      .   S
    N5     O70       2.81424      .   S
    Zr67   O71       1.25424      .   S
    N14    O71       2.72998      .   S
    Zr72   O73       1.71020      .   S
    N8     O73       3.77360      .   S
    Zr72   O74       1.65134      .   S
    N11    O74       3.58877      .   S
    Zr72   O75       1.48569      .   S
    N2     O75       3.23175      .   S
    Zr72   O76       1.48751      .   S
    N3     O76       3.23394      .   S
    Zr72   O77       1.65334      .   S
    N14    O77       3.65160      .   S
    Zr72   O78       1.71454      .   S
    N7     O78       3.78253      .   S
    Zr79   O80       1.25188      .   S
    N12    O80       2.72160      .   S
    Zr79   O81       1.28202      .   S
    N15    O81       2.76092      .   S
    Zr79   O82       1.22705  1_655   S
    N13    O82       2.63732      .   S
    Zr79   O83       1.40659      .   S
    N5     O83       2.81197  1_454   S
