# CIF file generated by openbabel 2.4.90, see http://openbabel.sf.net
data_I
_chemical_name_common ''
_cell_length_a 16.341
_cell_length_b 18.078
_cell_length_c 18.066
_cell_angle_alpha 68.745
_cell_angle_beta 72.547
_cell_angle_gamma 107.43
_space_group_name_H-M_alt 'P 1'
_space_group_name_Hall 'P 1'
loop_
    _symmetry_equiv_pos_as_xyz
    x,y,z
loop_
    _atom_site_label
    _atom_site_type_symbol
    _atom_site_fract_x
    _atom_site_fract_y
    _atom_site_fract_z
    _atom_site_occupancy
    N0      N    0.64667   0.59160   0.25962   1.000
    N1      N    0.90646   0.25989   0.14846   1.000
    N2      N    0.94385   0.85066   0.40843   1.000
    N3      N    0.35331   0.40848   0.74036   1.000
    N4      N    0.09353   0.74017   0.85136   1.000
    N5      N    0.85281   0.25970   0.59164   1.000
    N6      N    0.05617   0.14942   0.59134   1.000
    N7      N    0.59358   0.14868   0.25965   1.000
    N8      N    0.44416   0.59138   0.14940   1.000
    N9      N    0.14705   0.74037   0.40835   1.000
    N10     N    0.40642   0.85139   0.74034   1.000
    N11     N    0.55585   0.40869   0.85055   1.000
    Zr12    Zr   0.50000   0.50005   0.49998   1.000
    O13     O    0.37507   0.40175   0.52281   1.000
    O14     O    0.62494   0.59835   0.47710   1.000
    Zr15    Zr   1.00000   0.50003   0.00000   1.000
    O16     O    0.10230   0.47712   0.92446   1.000
    O17     O    0.89769   0.52295   0.07554   1.000
    Zr18    Zr   1.00000   0.50004   0.49999   1.000
    O19     O    0.12503   0.52284   0.40174   1.000
    O20     O    0.87497   0.47724   0.59823   1.000
    Zr21    Zr   0.50000   0.00003   0.49999   1.000
    O22     O    0.39779   0.92447   0.47706   1.000
    O23     O    0.60217   0.07560   0.52292   1.000
    Zr24    Zr   0.50001   0.50005   0.99999   1.000
    O25     O    0.52672   0.40153   0.07556   1.000
    O26     O    0.47329   0.59856   0.92442   1.000
    Zr27    Zr   0.00001   0.00003   0.49999   1.000
    O28     O    0.97328   0.07566   0.40145   1.000
    O29     O    0.02673   0.92440   0.59848   1.000
    O30     O    0.01111   0.04178   0.53065   1.000
    O31     O    0.98890   0.95829   0.46928   1.000
    O32     O    0.48901   0.53069   0.04174   1.000
    O33     O    0.96926   0.42783   0.04143   1.000
    O34     O    0.03073   0.57223   0.95852   1.000
    O35     O    0.53074   0.04152   0.42773   1.000
    O36     O    0.04157   0.57229   0.46927   1.000
    O37     O    0.95839   0.42778   0.53072   1.000
    O38     O    0.46925   0.95855   0.57225   1.000
    O39     O    0.45856   0.46935   0.57225   1.000
    O40     O    0.54144   0.53075   0.42772   1.000
    O41     O    0.51100   0.46940   0.95823   1.000
loop_
    _geom_bond_atom_site_label_1
    _geom_bond_atom_site_label_2
    _geom_bond_distance
    _geom_bond_site_symmetry_2
    _ccdc_geom_bond_type
    Zr12   O13       2.07031      .   S
    N6     O13       5.22414      .   S
    Zr12   O14       2.06995      .   S
    N2     O14       5.22308      .   S
    Zr15   O16       2.07001  1_654   S
    N3     O16       5.22342      .   S
    Zr15   O17       2.07008      .   S
    N0     O17       5.22356      .   S
    Zr18   O19       2.06999  1_655   S
    N8     O19       5.22356      .   S
    Zr18   O20       2.06979      .   S
    N11    O20       5.22324      .   S
    Zr21   O22       2.07014  1_545   S
    N9     O22       5.22324      .   S
    Zr21   O23       2.06986      .   S
    N5     O23       5.22232      .   S
    Zr24   O25       2.07043  1_556   S
    N7     O25       5.22467      .   S
    Zr24   O26       2.07042      .   S
    N10    O26       5.22460      .   S
    Zr27   O28       2.07083  1_455   S
    N1     O28       5.22590      .   S
    Zr27   O29       2.07027  1_545   S
    N4     O29       5.22419      .   S
    Zr27   O30       1.09120      .   S
    N6     O30       2.58914      .   S
    Zr27   O31       1.09185  1_445   S
    N2     O31       2.59114      .   S
    N8     O32       2.58795      .   S
    Zr24   O32       1.09056  1_556   S
    Zr15   O33       1.09067      .   S
    N1     O33       2.58779      .   S
    Zr15   O34       1.09073  1_654   S
    N4     O34       2.58824      .   S
    N7     O35       2.58860      .   S
    Zr21   O35       1.09092      .   S
    Zr18   O36       1.09191  1_655   S
    N9     O36       2.59128      .   S
    Zr18   O37       1.09202      .   S
    N5     O37       2.59170      .   S
    Zr21   O38       1.09095  1_545   S
    N10    O38       2.58864      .   S
    N3     O39       2.58899      .   S
    Zr12   O39       1.09099      .   S
    N0     O40       2.58873      .   S
    Zr12   O40       1.09091      .   S
    N11    O41       2.58851      .   S
    Zr24   O41       1.09085      .   S
