# CIF file generated by openbabel 2.4.90, see http://openbabel.sf.net
data_I
_chemical_name_common ''
_cell_length_a 16.341
_cell_length_b 18.078
_cell_length_c 18.066
_cell_angle_alpha 68.745
_cell_angle_beta 72.547
_cell_angle_gamma 107.43
_space_group_name_H-M_alt 'P 1'
_space_group_name_Hall 'P 1'
loop_
    _symmetry_equiv_pos_as_xyz
    x,y,z
loop_
    _atom_site_label
    _atom_site_type_symbol
    _atom_site_fract_x
    _atom_site_fract_y
    _atom_site_fract_z
    _atom_site_occupancy
    N0      N    0.64667   0.59160   0.25962   1.000
    N1      N    0.90646   0.25989   0.14846   1.000
    N2      N    0.94385   0.85066   0.40843   1.000
    N3      N    0.35331   0.40848   0.74036   1.000
    N4      N    0.09353   0.74017   0.85136   1.000
    N5      N    0.85281   0.25970   0.59164   1.000
    N6      N    0.05617   0.14942   0.59134   1.000
    N7      N    0.59358   0.14868   0.25965   1.000
    N8      N    0.44416   0.59138   0.14940   1.000
    N9      N    0.14705   0.74037   0.40835   1.000
    N10     N    0.40642   0.85139   0.74034   1.000
    N11     N    0.55585   0.40869   0.85055   1.000
    Zr12    Zr   0.50000   0.50005   0.49998   1.000
    O13     O    0.37507   0.40175   0.52281   1.000
    O14     O    0.46446   0.46416   0.57000   1.000
    O15     O    0.45266   0.47454   0.57449   1.000
    O16     O    0.62494   0.59835   0.47710   1.000
    O17     O    0.54734   0.52556   0.42547   1.000
    O18     O    0.53554   0.53594   0.42996   1.000
    Zr19    Zr   1.00000   0.50003   0.00000   1.000
    O20     O    0.10230   0.47712   0.92446   1.000
    O21     O    0.96559   0.43008   0.03401   1.000
    O22     O    0.97293   0.42559   0.04886   1.000
    O23     O    0.03440   0.56998   0.96595   1.000
    O24     O    0.89769   0.52295   0.07554   1.000
    O25     O    0.02706   0.57448   0.95110   1.000
    Zr26    Zr   1.00000   0.50004   0.49999   1.000
    O27     O    0.12503   0.52284   0.40174   1.000
    O28     O    0.04744   0.57452   0.47449   1.000
    O29     O    0.03569   0.57007   0.46404   1.000
    O30     O    0.87497   0.47724   0.59823   1.000
    O31     O    0.96427   0.43001   0.53594   1.000
    O32     O    0.95252   0.42556   0.52550   1.000
    Zr33    Zr   0.50000   0.00003   0.49999   1.000
    O34     O    0.52705   0.04892   0.42549   1.000
    O35     O    0.53444   0.03411   0.42997   1.000
    O36     O    0.47294   0.95114   0.57449   1.000
    O37     O    0.46555   0.96595   0.57001   1.000
    O38     O    0.39779   0.92447   0.47706   1.000
    O39     O    0.60217   0.07560   0.52292   1.000
    Zr40    Zr   0.50001   0.50005   0.99999   1.000
    O41     O    0.52206   0.47456   0.95084   1.000
    O42     O    0.49993   0.46423   0.96561   1.000
    O43     O    0.50008   0.53585   0.03436   1.000
    O44     O    0.47795   0.52552   0.04913   1.000
    O45     O    0.52672   0.40153   0.07556   1.000
    O46     O    0.47329   0.59856   0.92442   1.000
    Zr47    Zr   0.00001   0.00003   0.49999   1.000
    O48     O    0.00003   0.03441   0.53583   1.000
    O49     O    0.02218   0.04915   0.52547   1.000
    O50     O    0.97328   0.07566   0.40145   1.000
    O51     O    0.99998   0.96565   0.46410   1.000
    O52     O    0.97783   0.95092   0.47446   1.000
    O53     O    0.02673   0.92440   0.59848   1.000
loop_
    _geom_bond_atom_site_label_1
    _geom_bond_atom_site_label_2
    _geom_bond_distance
    _geom_bond_site_symmetry_2
    _ccdc_geom_bond_type
    Zr12   O13       2.07031      .   S
    N6     O13       5.22414      .   S
    Zr12   O14       1.04739      .   S
    N3     O14       2.66267      .   S
    Zr12   O15       1.15529      .   S
    N3     O15       2.52331      .   S
    Zr12   O16       2.06995      .   S
    N2     O16       5.22308      .   S
    Zr12   O17       1.15521      .   S
    N0     O17       2.52304      .   S
    Zr12   O18       1.04730      .   S
    N0     O18       2.66242      .   S
    Zr19   O20       2.07001  1_654   S
    N3     O20       5.22342      .   S
    Zr19   O21       1.04706      .   S
    N1     O21       2.66146      .   S
    Zr19   O22       1.15497      .   S
    N1     O22       2.52212      .   S
    Zr19   O23       1.04700  1_654   S
    N4     O23       2.66204      .   S
    Zr19   O24       2.07008      .   S
    N0     O24       5.22356      .   S
    Zr19   O25       1.15513  1_654   S
    N4     O25       2.52244      .   S
    Zr26   O27       2.06999  1_655   S
    N8     O27       5.22356      .   S
    Zr26   O28       1.15618  1_655   S
    N9     O28       2.52568      .   S
    Zr26   O29       1.04833  1_655   S
    N9     O29       2.66489      .   S
    Zr26   O30       2.06979      .   S
    N11    O30       5.22324      .   S
    Zr26   O31       1.04837      .   S
    N5     O31       2.66538      .   S
    Zr26   O32       1.15634      .   S
    N5     O32       2.52603      .   S
    Zr33   O34       1.15528      .   S
    N7     O34       2.52285      .   S
    Zr33   O35       1.04724      .   S
    N7     O35       2.66235      .   S
    Zr33   O36       1.15531  1_545   S
    N10    O36       2.52289      .   S
    Zr33   O37       1.04728  1_545   S
    N10    O37       2.66238      .   S
    Zr33   O38       2.07014  1_545   S
    N9     O38       5.22324      .   S
    Zr33   O39       2.06986      .   S
    N5     O39       5.22232      .   S
    Zr40   O41       1.15523      .   S
    N11    O41       2.52274      .   S
    Zr40   O42       1.04715      .   S
    N11    O42       2.66227      .   S
    Zr40   O43       1.04681  1_556   S
    N8     O43       2.66176      .   S
    Zr40   O44       1.15499  1_556   S
    N8     O44       2.52214      .   S
    Zr40   O45       2.07043  1_556   S
    N7     O45       5.22467      .   S
    Zr40   O46       2.07042      .   S
    N10    O46       5.22460      .   S
    Zr47   O48       1.04755      .   S
    N6     O48       2.66284      .   S
    Zr47   O49       1.15555      .   S
    N6     O49       2.52345      .   S
    Zr47   O50       2.07083  1_455   S
    N1     O50       5.22590      .   S
    Zr47   O51       1.04822  1_445   S
    N2     O51       2.66480      .   S
    Zr47   O52       1.15617  1_445   S
    N2     O52       2.52549      .   S
    Zr47   O53       2.07027  1_545   S
    N4     O53       5.22419      .   S
