# CIF file generated by openbabel 2.4.90, see http://openbabel.sf.net
data_I
_chemical_name_common ''
_cell_length_a 14.926
_cell_length_b 19.994
_cell_length_c 20.525
_cell_angle_alpha 89.998
_cell_angle_beta 94.364
_cell_angle_gamma 89.993
_space_group_name_H-M_alt 'P 1'
_space_group_name_Hall 'P 1'
loop_
    _symmetry_equiv_pos_as_xyz
    x,y,z
loop_
    _atom_site_label
    _atom_site_type_symbol
    _atom_site_fract_x
    _atom_site_fract_y
    _atom_site_fract_z
    _atom_site_occupancy
    C0      C    0.37473   0.59892   0.67603   1.000
    C1      C    0.99673   0.15647   0.66881   1.000
    C2      C    0.13987   0.40111   0.67371   1.000
    C3      C    0.51483   0.84424   0.67295   1.000
    C4      C    0.12530   0.09890   0.32397   1.000
    C5      C    0.50333   0.65647   0.33119   1.000
    C6      C    0.36015   0.90112   0.32629   1.000
    C7      C    0.98523   0.34425   0.32705   1.000
    C8      C    0.62532   0.40109   0.32397   1.000
    C9      C    0.00331   0.84353   0.33119   1.000
    C10     C    0.86017   0.59890   0.32629   1.000
    C11     C    0.48521   0.15577   0.32705   1.000
    C12     C    0.87474   0.90110   0.67603   1.000
    C13     C    0.49671   0.34354   0.66881   1.000
    C14     C    0.63989   0.09889   0.67371   1.000
    C15     C    0.01481   0.65576   0.67295   1.000
