# CIF file generated by openbabel 2.4.90, see http://openbabel.sf.net
data_I
_chemical_name_common ''
_cell_length_a 10.878
_cell_length_b 18.066
_cell_length_c 18.067
_cell_angle_alpha 90.186
_cell_angle_beta 90.212
_cell_angle_gamma 90.427
_space_group_name_H-M_alt 'P 1'
_space_group_name_Hall 'P 1'
loop_
    _symmetry_equiv_pos_as_xyz
    x,y,z
loop_
    _atom_site_label
    _atom_site_type_symbol
    _atom_site_fract_x
    _atom_site_fract_y
    _atom_site_fract_z
    _atom_site_occupancy
    O0      O    0.70704   0.82471   0.44235   1.000
    O1      O    0.80761   0.87847   0.53453   1.000
    O2      O    0.60839   0.85619   0.54387   1.000
    O3      O    0.20297   0.17468   0.55411   1.000
    O4      O    0.30265   0.12175   0.46207   1.000
    O5      O    0.10382   0.14367   0.45187   1.000
    O6      O    0.95260   0.05571   0.32197   1.000
    O7      O    0.05359   0.96452   0.37518   1.000
    O8      O    0.85443   0.95334   0.35321   1.000
    O9      O    0.04771   0.67545   0.94267   1.000
    O10     O    0.94771   0.62195   0.03446   1.000
    O11     O    0.14720   0.64375   0.04405   1.000
    O12     O    0.29736   0.55565   0.17213   1.000
    O13     O    0.19753   0.46262   0.11906   1.000
    O14     O    0.39586   0.45332   0.14361   1.000
    O15     O    0.79657   0.44474   0.82489   1.000
    O16     O    0.69822   0.53731   0.87782   1.000
    O17     O    0.89645   0.54751   0.85342   1.000
