# CIF file generated by openbabel 2.4.90, see http://openbabel.sf.net
data_I
_chemical_name_common ''
_cell_length_a 10.878
_cell_length_b 18.066
_cell_length_c 18.067
_cell_angle_alpha 90.186
_cell_angle_beta 90.212
_cell_angle_gamma 90.427
_space_group_name_H-M_alt 'P 1'
_space_group_name_Hall 'P 1'
loop_
    _symmetry_equiv_pos_as_xyz
    x,y,z
loop_
    _atom_site_label
    _atom_site_type_symbol
    _atom_site_fract_x
    _atom_site_fract_y
    _atom_site_fract_z
    _atom_site_occupancy
    H0      H    0.14485   0.57277   0.60695   1.000
    H1      H    0.16094   0.57887   0.74488   1.000
    H2      H    0.06144   0.68094   0.81345   1.000
    H3      H    0.93043   0.77156   0.60784   1.000
    H4      H    0.64412   0.42956   0.39224   1.000
    H5      H    0.66040   0.42415   0.25440   1.000
    H6      H    0.56046   0.32164   0.18485   1.000
    H7      H    0.42771   0.22961   0.38937   1.000
    H8      H    0.89774   0.11075   0.92686   1.000
    H9      H    0.91263   0.24873   0.92175   1.000
    H10     H    0.81148   0.31683   0.81987   1.000
    H11     H    0.68087   0.11063   0.72754   1.000
    H12     H    0.39688   0.89317   0.06990   1.000
    H13     H    0.41412   0.75544   0.07631   1.000
    H14     H    0.31300   0.68665   0.17797   1.000
    H15     H    0.17800   0.89167   0.26739   1.000
    H16     H    0.60872   0.92846   0.10735   1.000
    H17     H    0.59145   0.92129   0.24508   1.000
    H18     H    0.69160   0.81916   0.31302   1.000
    H19     H    0.82536   0.73051   0.10722   1.000
    H20     H    0.10256   0.06942   0.88977   1.000
    H21     H    0.08855   0.07403   0.75182   1.000
    H22     H    0.18980   0.17605   0.68334   1.000
    H23     H    0.31950   0.26923   0.88918   1.000
    H24     H    0.85501   0.39310   0.42552   1.000
    H25     H    0.83839   0.25513   0.42052   1.000
    H26     H    0.93929   0.18580   0.31930   1.000
    H27     H    0.07227   0.39079   0.22737   1.000
    H28     H    0.35585   0.60648   0.57044   1.000
    H29     H    0.34227   0.74447   0.57449   1.000
    H30     H    0.44376   0.81455   0.67597   1.000
    H31     H    0.57177   0.61028   0.77005   1.000
    C32     C    0.03939   0.67288   0.59894   1.000
    C33     C    0.10232   0.61764   0.63777   1.000
    C34     C    0.11013   0.62097   0.71476   1.000
    C35     C    0.05256   0.67782   0.75350   1.000
    C36     C    0.98540   0.73176   0.71521   1.000
    C37     C    0.98117   0.72953   0.63788   1.000
    C38     C    0.53760   0.32886   0.39926   1.000
    C39     C    0.60124   0.38457   0.36101   1.000
    C40     C    0.60921   0.38158   0.28405   1.000
    C41     C    0.55145   0.32447   0.24477   1.000
    C42     C    0.48382   0.26993   0.28247   1.000
    C43     C    0.47913   0.27196   0.35978   1.000
    C44     C    0.79126   0.10222   0.82637   1.000
    C45     C    0.85452   0.14133   0.88205   1.000
    C46     C    0.86168   0.21836   0.87927   1.000
    C47     C    0.80317   0.25683   0.82254   1.000
    C48     C    0.73564   0.21823   0.76816   1.000
    C49     C    0.73202   0.14089   0.76985   1.000
    C50     C    0.28892   0.90091   0.16926   1.000
    C51     C    0.35364   0.86226   0.11456   1.000
    C52     C    0.36211   0.78537   0.11807   1.000
    C53     C    0.30376   0.74651   0.17470   1.000
    C54     C    0.23532   0.78461   0.22827   1.000
    C55     C    0.23010   0.86185   0.22575   1.000
    C56     C    0.71535   0.82885   0.09880   1.000
    C57     C    0.65146   0.88355   0.13789   1.000
    C58     C    0.64299   0.87961   0.21477   1.000
    C59     C    0.70088   0.82273   0.25318   1.000
    C60     C    0.76898   0.76932   0.21469   1.000
    C61     C    0.77386   0.77212   0.13743   1.000
    C62     C    0.20917   0.17015   0.89796   1.000
    C63     C    0.14608   0.11421   0.85905   1.000
    C64     C    0.13936   0.11673   0.78201   1.000
    C65     C    0.19788   0.17355   0.74334   1.000
    C66     C    0.26506   0.22825   0.78176   1.000
    C67     C    0.26848   0.22671   0.85909   1.000
    C68     C    0.96196   0.40043   0.32571   1.000
    C69     C    0.89796   0.36196   0.38101   1.000
    C70     C    0.88986   0.28494   0.37829   1.000
    C71     C    0.94804   0.24580   0.32192   1.000
    C72     C    0.01593   0.28375   0.26782   1.000
    C73     C    0.02066   0.36109   0.26947   1.000
    C74     C    0.46194   0.59992   0.67108   1.000
    C75     C    0.39926   0.63794   0.61504   1.000
    C76     C    0.39286   0.71498   0.61723   1.000
    C77     C    0.45154   0.75456   0.67375   1.000
    C78     C    0.51842   0.71707   0.72851   1.000
    C79     C    0.52122   0.63971   0.72741   1.000
    N80     N    0.70591   0.85278   0.50624   1.000
    N81     N    0.20130   0.14702   0.49006   1.000
    N82     N    0.45509   0.00000   0.64412   1.000
    N83     N    0.95161   0.99190   0.34974   1.000
    N84     N    0.04931   0.64737   0.00637   1.000
    N85     N    0.54870   0.35271   0.00000   1.000
    N86     N    0.29867   0.49123   0.14525   1.000
    N87     N    0.79883   0.50917   0.85171   1.000
    O88     O    0.45780   0.94400   0.67177   1.000
    O89     O    0.55597   0.03726   0.61903   1.000
    O90     O    0.35665   0.00000   0.64059   1.000
    O91     O    0.54705   0.32505   0.05484   1.000
    O92     O    0.44738   0.37796   0.96261   1.000
    O93     O    0.64624   0.35618   0.00000   1.000
loop_
    _geom_bond_atom_site_label_1
    _geom_bond_atom_site_label_2
    _geom_bond_distance
    _geom_bond_site_symmetry_2
    _ccdc_geom_bond_type
    N85    O93       1.06238      .   S
    N85    O91       1.11129      .   S
    N85    O92       1.37222  1_554   S
    H12    C51       1.08891      .   S
    H13    C52       1.08940      .   S
    C56    C61       1.39771      .   S
    C56    C57       1.40270      .   S
    H19    C61       1.08755      .   S
    H16    C57       1.08888      .   S
    C51    C52       1.39443      .   S
    C51    C50       1.40286      .   S
    C52    C53       1.39472      .   S
    C61    C60       1.39815      .   S
    C57    C58       1.39434      .   S
    C50    C55       1.39702      .   S
    C53    H14       1.08858      .   S
    C53    C54       1.40477      .   S
    H6     C41       1.08837      .   S
    C60    C59       1.40485      .   S
    C58    H17       1.08939      .   S
    C58    C59       1.39465      .   S
    C55    C54       1.39799      .   S
    C55    H15       1.08747      .   S
    H27    C73       1.08757      .   S
    C41    C42       1.40480      .   S
    C41    C40       1.39476      .   S
    C59    H18       1.08832      .   S
    H5     C40       1.08942      .   S
    C72    C73       1.39808      .   S
    C72    C71       1.40464  1_455   S
    C73    C68       1.39712  1_455   S
    C42    C43       1.39811      .   S
    C40    C39       1.39432      .   S
    H26    C71       1.08833      .   S
    C71    C70       1.39444      .   S
    C68    C69       1.40295      .   S
    C43    H7        1.08749      .   S
    C43    C38       1.39720      .   S
    C39    H4        1.08893      .   S
    C39    C38       1.40278      .   S
    C70    C69       1.39429      .   S
    C70    H25       1.08943      .   S
    C69    H24       1.08875      .   S
    H28    C75       1.08885      .   S
    H29    C76       1.08943      .   S
    C32    C33       1.40279      .   S
    C32    C37       1.39712  1_455   S
    H0     C33       1.08881      .   S
    H3     C37       1.08746      .   S
    C75    C76       1.39448      .   S
    C75    C74       1.40283      .   S
    C76    C77       1.39473      .   S
    O89    N82       1.36289      .   S
    C33    C34       1.39435      .   S
    C37    C36       1.39802      .   S
    O90    N82       1.07254      .   S
    N82    O88       1.13020  1_545   S
    C74    C79       1.39710      .   S
    C77    H30       1.08831      .   S
    C77    C78       1.40472      .   S
    H22    C65       1.08829      .   S
    C34    H1        1.08942      .   S
    C34    C35       1.39466      .   S
    C36    C35       1.40462  1_655   S
    C79    C78       1.39812      .   S
    C79    H31       1.08742      .   S
    H11    C49       1.08750      .   S
    C65    C66       1.40483      .   S
    C65    C64       1.39468      .   S
    H21    C64       1.08948      .   S
    C35    H2        1.08830      .   S
    C48    C49       1.39798      .   S
    C48    C47       1.40482      .   S
    C49    C44       1.39732      .   S
    C66    C67       1.39779      .   S
    C64    C63       1.39444      .   S
    H10    C47       1.08818      .   S
    C47    C46       1.39460      .   S
    C44    C45       1.40280      .   S
    C63    H20       1.08895      .   S
    C63    C62       1.40294      .   S
    C67    H23       1.08743      .   S
    C67    C62       1.39702      .   S
    C46    C45       1.39437      .   S
    C46    H9        1.08946      .   S
    C45    H8        1.08884      .   S
    O88    O90       1.60214  1_565   S
    O91    O93       1.56995      .   S
