# CIF file generated by openbabel 2.4.90, see http://openbabel.sf.net
data_I
_chemical_name_common ''
_cell_length_a 10.878
_cell_length_b 18.066
_cell_length_c 18.067
_cell_angle_alpha 90.186
_cell_angle_beta 90.212
_cell_angle_gamma 90.427
_space_group_name_H-M_alt 'P 1'
_space_group_name_Hall 'P 1'
loop_
    _symmetry_equiv_pos_as_xyz
    x,y,z
loop_
    _atom_site_label
    _atom_site_type_symbol
    _atom_site_fract_x
    _atom_site_fract_y
    _atom_site_fract_z
    _atom_site_occupancy
    C0      C    0.03103   0.67108   0.51649   1.000
    C1      C    0.91269   0.78941   0.75472   1.000
    C2      C    0.52879   0.33054   0.48165   1.000
    C3      C    0.41088   0.21185   0.24241   1.000
    C4      C    0.78327   0.00000   0.82769   1.000
    C5      C    0.66158   0.25744   0.71083   1.000
    C6      C    0.27915   0.98322   0.16681   1.000
    C7      C    0.16229   0.74492   0.28586   1.000
    C8      C    0.72444   0.83134   0.01642   1.000
    C9      C    0.84209   0.71180   0.25412   1.000
    C10     C    0.21685   0.16908   0.00000   1.000
    C11     C    0.33871   0.28599   0.74247   1.000
    C12     C    0.97119   0.48287   0.32742   1.000
    C13     C    0.08898   0.24372   0.21071   1.000
    C14     C    0.46942   0.51746   0.67030   1.000
    C15     C    0.59229   0.75733   0.78593   1.000
