# CIF file generated by openbabel 2.4.90, see http://openbabel.sf.net
data_I
_chemical_name_common ''
_cell_length_a 10.878
_cell_length_b 18.066
_cell_length_c 18.067
_cell_angle_alpha 90.186
_cell_angle_beta 90.212
_cell_angle_gamma 90.427
_space_group_name_H-M_alt 'P 1'
_space_group_name_Hall 'P 1'
loop_
    _symmetry_equiv_pos_as_xyz
    x,y,z
loop_
    _atom_site_label
    _atom_site_type_symbol
    _atom_site_fract_x
    _atom_site_fract_y
    _atom_site_fract_z
    _atom_site_occupancy
    N0      N    0.80810   0.18648   0.83442   1.000
    N1      N    0.55551   0.33663   0.31522   1.000
    N2      N    0.69706   0.83556   0.18294   1.000
    N3      N    0.94394   0.31628   0.33369   1.000
    N4      N    0.30759   0.81684   0.16222   1.000
    N5      N    0.05686   0.66547   0.68312   1.000
    N6      N    0.44589   0.68400   0.66240   1.000
    N7      N    0.04931   0.64737   0.00637   1.000
    N8      N    0.29867   0.49123   0.14525   1.000
    N9      N    0.45638   0.99532   0.64388   1.000
    N10     N    0.70591   0.85278   0.50624   1.000
    N11     N    0.19264   0.16183   0.81373   1.000
    N12     N    0.20130   0.14702   0.49006   1.000
    N13     N    0.95161   0.99190   0.34974   1.000
    N14     N    0.79883   0.50917   0.85171   1.000
    N15     N    0.54734   0.35297   0.00436   1.000
    Zr16    Zr   0.24889   0.15751   0.15698   1.000
    O17     O    0.37516   0.22313   0.22290   1.000
    O18     O    0.27235   0.01848   0.16105   1.000
    O19     O    0.12355   0.22376   0.22173   1.000
    O20     O    0.22586   0.16162   0.01917   1.000
    Zr21    Zr   0.49950   0.34219   0.65694   1.000
    O22     O    0.48790   0.19594   0.64041   1.000
    O23     O    0.62643   0.27717   0.72195   1.000
    O24     O    0.52193   0.33768   0.51739   1.000
    O25     O    0.51296   0.35770   0.80345   1.000
    O26     O    0.37338   0.27583   0.72243   1.000
    O27     O    0.47764   0.48176   0.66174   1.000
    Zr28    Zr   0.00186   0.65822   0.34039   1.000
    O29     O    0.12753   0.72451   0.27502   1.000
    O30     O    0.97856   0.51859   0.33526   1.000
    O31     O    0.02395   0.66347   0.48040   1.000
    O32     O    0.87658   0.72314   0.27453   1.000
    Zr33    Zr   0.75325   0.84257   0.84057   1.000
    O34     O    0.62693   0.77658   0.77519   1.000
    O35     O    0.87810   0.77780   0.77480   1.000
    O36     O    0.73086   0.83770   0.98042   1.000
    O37     O    0.77547   0.98068   0.83565   1.000
    O38     O    0.10191   0.59388   0.24592   1.000
    O39     O    0.02691   0.64027   0.20604   1.000
    O40     O    0.97605   0.79239   0.35768   1.000
    O41     O    0.90229   0.75213   0.40427   1.000
    O42     O    0.77756   0.70874   0.85832   1.000
    O43     O    0.85271   0.74860   0.90443   1.000
    O44     O    0.72835   0.86032   0.70612   1.000
    O45     O    0.64031   0.90773   0.74557   1.000
    O46     O    0.27498   0.29150   0.13889   1.000
    O47     O    0.14886   0.09385   0.25003   1.000
    O48     O    0.22391   0.13982   0.29068   1.000
    O49     O    0.36271   0.25194   0.09182   1.000
    O50     O    0.60047   0.40635   0.75129   1.000
    O51     O    0.39911   0.24803   0.59259   1.000
loop_
    _geom_bond_atom_site_label_1
    _geom_bond_atom_site_label_2
    _geom_bond_distance
    _geom_bond_site_symmetry_2
    _ccdc_geom_bond_type
    Zr16   O17       2.15997      .   S
    N1     O17       3.27546      .   S
    Zr16   O18       2.52774      .   S
    N4     O18       3.66583  1_565   S
    Zr16   O19       2.16503      .   S
    N3     O19       3.28013  1_655   S
    Zr16   O20       2.50288      .   S
    N11    O20       3.72783  1_556   S
    Zr21   O22       2.66004      .   S
    N9     O22       3.63879  1_565   S
    Zr21   O23       2.16484      .   S
    N0     O23       3.28017      .   S
    Zr21   O24       2.53507      .   S
    N1     O24       3.67218      .   S
    Zr21   O25       2.66427      .   S
    N15    O25       3.64905  1_554   S
    Zr21   O26       2.17164      .   S
    N11    O26       3.28840      .   S
    Zr21   O27       2.53580      .   S
    N6     O27       3.67234      .   S
    Zr28   O29       2.16673      .   S
    N4     O29       3.28251      .   S
    Zr28   O30       2.53473  1_455   S
    N3     O30       3.67157      .   S
    Zr28   O31       2.54152      .   S
    N5     O31       3.67863      .   S
    Zr28   O32       2.16086  1_455   S
    N2     O32       3.27619      .   S
    Zr33   O34       2.15841      .   S
    N6     O34       3.27539      .   S
    Zr33   O35       2.15689      .   S
    N5     O35       3.27171  1_455   S
    Zr33   O36       2.54112      .   S
    N2     O36       3.67902  1_554   S
    Zr33   O37       2.50690      .   S
    N0     O37       3.73236  1_545   S
    Zr28   O38       2.33857      .   S
    N8     O38       3.37541      .   S
    Zr28   O39       2.46422      .   S
    N7     O39       3.61914      .   S
    Zr28   O40       2.46115  1_455   S
    N13    O40       3.61943      .   S
    Zr28   O41       2.32547  1_455   S
    N10    O41       3.36575      .   S
    Zr33   O42       2.45615      .   S
    N14    O42       3.61616      .   S
    Zr33   O43       2.32697      .   S
    N7     O43       3.37073  1_454   S
    Zr33   O44       2.46529      .   S
    N10    O44       3.62071      .   S
    Zr33   O45       2.42073      .   S
    N9     O45       3.14982      .   S
    Zr16   O46       2.45825      .   S
    N8     O46       3.61700      .   S
    Zr16   O47       2.31099      .   S
    N13    O47       3.35156  1_665   S
    Zr16   O48       2.45354      .   S
    N12    O48       3.61333      .   S
    Zr16   O49       2.41282      .   S
    N15    O49       3.13842      .   S
    N14    O50       3.35962      .   S
    Zr21   O50       2.32597      .   S
    N12    O51       3.35889      .   S
    Zr21   O51       2.32116      .   S
