# CIF file generated by openbabel 2.4.90, see http://openbabel.sf.net
data_I
_chemical_name_common ''
_cell_length_a 10.878
_cell_length_b 18.066
_cell_length_c 18.067
_cell_angle_alpha 90.186
_cell_angle_beta 90.212
_cell_angle_gamma 90.427
_space_group_name_H-M_alt 'P 1'
_space_group_name_Hall 'P 1'
loop_
    _symmetry_equiv_pos_as_xyz
    x,y,z
loop_
    _atom_site_label
    _atom_site_type_symbol
    _atom_site_fract_x
    _atom_site_fract_y
    _atom_site_fract_z
    _atom_site_occupancy
    Zr0     Zr   0.93890   0.82940   0.40733   1.000
    Zr1     Zr   0.43647   0.17084   0.58873   1.000
    Zr2     Zr   0.68985   0.91028   0.66911   1.000
    Zr3     Zr   0.18600   0.09042   0.32664   1.000
    Zr4     Zr   0.81552   0.67239   0.90744   1.000
    Zr5     Zr   0.31418   0.32808   0.08921   1.000
    Zr6     Zr   0.06549   0.59072   0.16899   1.000
    Zr7     Zr   0.56356   0.40897   0.82851   1.000
    Zr8     Zr   0.00250   0.63332   0.36543   1.000
    Zr9     Zr   0.49865   0.36660   0.63227   1.000
    Zr10    Zr   0.75362   0.86901   0.86578   1.000
    Zr11    Zr   0.24727   0.13299   0.13089   1.000
    Zr12    Zr   0.03103   0.67108   0.51649   1.000
    Zr13    Zr   0.91269   0.78941   0.75472   1.000
    Zr14    Zr   0.52879   0.33054   0.48165   1.000
    Zr15    Zr   0.41088   0.21185   0.24241   1.000
    Zr16    Zr   0.78327   0.00000   0.82769   1.000
    Zr17    Zr   0.66158   0.25744   0.71083   1.000
    Zr18    Zr   0.27915   0.98322   0.16681   1.000
    Zr19    Zr   0.16229   0.74492   0.28586   1.000
    Zr20    Zr   0.72444   0.83134   0.01642   1.000
    Zr21    Zr   0.84209   0.71180   0.25412   1.000
    Zr22    Zr   0.21685   0.16908   0.00000   1.000
    Zr23    Zr   0.33871   0.28599   0.74247   1.000
    Zr24    Zr   0.97119   0.48287   0.32742   1.000
    Zr25    Zr   0.08898   0.24372   0.21071   1.000
    Zr26    Zr   0.46942   0.51746   0.67030   1.000
    Zr27    Zr   0.59229   0.75733   0.78593   1.000
    Zr28    Zr   0.08334   0.61910   0.48126   1.000
    Zr29    Zr   0.96902   0.72163   0.48389   1.000
    Zr30    Zr   0.89176   0.77958   0.82453   1.000
    Zr31    Zr   0.87072   0.84380   0.71904   1.000
    Zr32    Zr   0.58335   0.38183   0.51744   1.000
    Zr33    Zr   0.46391   0.28048   0.51377   1.000
    Zr34    Zr   0.38949   0.22193   0.17261   1.000
    Zr35    Zr   0.36916   0.15688   0.27772   1.000
    Zr36    Zr   0.83828   0.98457   0.87870   1.000
    Zr37    Zr   0.71854   0.98698   0.77772   1.000
    Zr38    Zr   0.63982   0.32707   0.72145   1.000
    Zr39    Zr   0.61917   0.22179   0.65598   1.000
    Zr40    Zr   0.33329   0.01859   0.11560   1.000
    Zr41    Zr   0.21374   0.01571   0.21609   1.000
    Zr42    Zr   0.14111   0.67496   0.27578   1.000
    Zr43    Zr   0.12039   0.78056   0.34044   1.000
    Zr44    Zr   0.67232   0.88347   0.98143   1.000
    Zr45    Zr   0.78696   0.78109   0.98364   1.000
    Zr46    Zr   0.86337   0.72193   0.32404   1.000
    Zr47    Zr   0.88409   0.65733   0.21844   1.000
    Zr48    Zr   0.16149   0.11820   0.01578   1.000
    Zr49    Zr   0.28180   0.21918   0.01304   1.000
    Zr50    Zr   0.35990   0.27585   0.67268   1.000
    Zr51    Zr   0.38111   0.34082   0.77819   1.000
    Zr52    Zr   0.91668   0.51832   0.37839   1.000
    Zr53    Zr   0.03642   0.51538   0.27797   1.000
    Zr54    Zr   0.10986   0.17410   0.22141   1.000
    Zr55    Zr   0.13128   0.27864   0.15577   1.000
    Zr56    Zr   0.41642   0.48149   0.61851   1.000
    Zr57    Zr   0.53168   0.48562   0.72137   1.000
    Zr58    Zr   0.61392   0.82713   0.77565   1.000
    Zr59    Zr   0.63453   0.72220   0.84071   1.000
    O60     O    0.24933   0.19413   0.00652   1.000
    O61     O    0.18917   0.14364   0.00789   1.000
    O62     O    0.29799   0.27363   0.05112   1.000
    O63     O    0.20438   0.12560   0.07333   1.000
    O64     O    0.69838   0.85740   0.99893   1.000
    O65     O    0.75570   0.80622   0.00003   1.000
    O66     O    0.22273   0.30336   0.12249   1.000
    O67     O    0.29028   0.07579   0.12324   1.000
    O68     O    0.30622   0.00091   0.14120   1.000
    O69     O    0.31838   0.17746   0.15175   1.000
    O70     O    0.17857   0.15354   0.17615   1.000
    O71     O    0.11013   0.26118   0.18324   1.000
    O72     O    0.24645   0.99947   0.19145   1.000
    O73     O    0.97479   0.62403   0.19372   1.000
    O74     O    0.05095   0.55305   0.22348   1.000
    O75     O    0.40018   0.21689   0.20751   1.000
    O76     O    0.09942   0.20891   0.21606   1.000
    O77     O    0.19987   0.05307   0.27137   1.000
    O78     O    0.86309   0.68456   0.23628   1.000
    O79     O    0.39002   0.18436   0.26006   1.000
    O80     O    0.85273   0.71686   0.28908   1.000
    O81     O    0.15170   0.70994   0.28082   1.000
    O82     O    0.07181   0.65414   0.32061   1.000
    O83     O    0.27758   0.12365   0.30218   1.000
    O84     O    0.00381   0.49913   0.30270   1.000
    O85     O    0.14133   0.76274   0.31315   1.000
    O86     O    0.93294   0.67763   0.34474   1.000
    O87     O    0.94394   0.50059   0.35290   1.000
    O88     O    0.02964   0.80498   0.37388   1.000
    O89     O    0.95959   0.57582   0.37191   1.000
    O90     O    0.04292   0.62621   0.42334   1.000
    O91     O    0.95396   0.77552   0.44561   1.000
    O92     O    0.05718   0.64509   0.49887   1.000
    O93     O    0.49635   0.30551   0.49771   1.000
    O94     O    0.55607   0.35618   0.49954   1.000
    O95     O    0.00003   0.69635   0.50019   1.000
    O96     O    0.45019   0.22566   0.55125   1.000
    O97     O    0.54100   0.37422   0.57485   1.000
    O98     O    0.52782   0.19632   0.62235   1.000
    O99     O    0.45753   0.42405   0.62539   1.000
    O100    O    0.44292   0.49947   0.64440   1.000
    O101    O    0.42927   0.32123   0.65247   1.000
    O102    O    0.56923   0.34684   0.67686   1.000
    O103    O    0.64037   0.23962   0.68340   1.000
    O104    O    0.78028   0.87704   0.69407   1.000
    O105    O    0.70419   0.94863   0.72341   1.000
    O106    O    0.50055   0.50154   0.69583   1.000
    O107    O    0.34931   0.28092   0.70757   1.000
    O108    O    0.65070   0.29226   0.71614   1.000
    O109    O    0.89171   0.81660   0.73688   1.000
    O110    O    0.54762   0.44730   0.77494   1.000
    O111    O    0.35991   0.31341   0.76033   1.000
    O112    O    0.90223   0.78450   0.78963   1.000
    O113    O    0.60311   0.79223   0.78079   1.000
    O114    O    0.68377   0.84807   0.82071   1.000
    O115    O    0.75090   0.99349   0.80270   1.000
    O116    O    0.47234   0.37490   0.80335   1.000
    O117    O    0.61341   0.73976   0.81332   1.000
    O118    O    0.82269   0.82430   0.84515   1.000
    O119    O    0.81077   0.99228   0.85319   1.000
    O120    O    0.72503   0.69730   0.87407   1.000
    O121    O    0.79595   0.92679   0.87224   1.000
    O122    O    0.71297   0.87624   0.92360   1.000
    O123    O    0.80124   0.72674   0.94554   1.000
    O124    O    0.85364   0.72599   0.86598   1.000
    O125    O    0.35183   0.27500   0.13091   1.000
    O126    O    0.60169   0.36802   0.77498   1.000
    O127    O    0.10330   0.63284   0.22239   1.000
    O128    O    0.90113   0.77567   0.36568   1.000
    O129    O    0.39819   0.22335   0.63070   1.000
    O130    O    0.14793   0.13226   0.27402   1.000
    O131    O    0.65188   0.86870   0.72238   1.000
    N132    N    0.80810   0.18648   0.83442   1.000
    O133    O    0.75336   0.21216   0.78696   1.000
    O134    O    0.79768   0.11879   0.83073   1.000
    N135    N    0.55551   0.33663   0.31522   1.000
    O136    O    0.50143   0.28876   0.28883   1.000
    O137    O    0.54435   0.33317   0.37784   1.000
    N138    N    0.69706   0.83556   0.18294   1.000
    O139    O    0.75130   0.78806   0.20868   1.000
    O140    O    0.70848   0.83283   0.12028   1.000
    N141    N    0.94394   0.31628   0.33369   1.000
    O142    O    0.95526   0.37896   0.33013   1.000
    O143    O    0.99820   0.29001   0.28648   1.000
    N144    N    0.30759   0.81684   0.16222   1.000
    O145    O    0.25319   0.79080   0.20964   1.000
    O146    O    0.29581   0.87945   0.16513   1.000
    N147    N    0.05686   0.66547   0.68312   1.000
    O148    O    0.00295   0.71303   0.70904   1.000
    O149    O    0.04604   0.66872   0.62042   1.000
    N150    N    0.44589   0.68400   0.66240   1.000
    O151    O    0.45578   0.62134   0.66654   1.000
    O152    O    0.50062   0.71060   0.70981   1.000
    N153    N    0.04931   0.64737   0.00637   1.000
    O154    O    0.91467   0.63456   0.00271   1.000
    O155    O    0.97716   0.61414   0.06810   1.000
    O156    O    0.98966   0.67469   0.93386   1.000
    O157    O    0.12677   0.63050   0.07528   1.000
    N158    N    0.29867   0.49123   0.14525   1.000
    O159    O    0.23939   0.56442   0.17134   1.000
    O160    O    0.37544   0.42201   0.13001   1.000
    O161    O    0.22669   0.42898   0.11159   1.000
    O162    O    0.16452   0.49464   0.13154   1.000
    N163    N    0.45638   0.99532   0.64388   1.000
    O164    O    0.47630   0.04968   0.62388   1.000
    O165    O    0.53964   0.98454   0.64398   1.000
    O166    O    0.51510   0.96123   0.65716   1.000
    N167    N    0.70591   0.85278   0.50624   1.000
    O168    O    0.76500   0.82589   0.43359   1.000
    O169    O    0.84044   0.86621   0.50273   1.000
    O170    O    0.77817   0.88642   0.56818   1.000
    O171    O    0.62875   0.86971   0.57518   1.000
    N172    N    0.19264   0.16183   0.81373   1.000
    O173    O    0.20283   0.16573   0.88136   1.000
    O174    O    0.24726   0.20948   0.78792   1.000
    N175    N    0.20130   0.14702   0.49006   1.000
    O176    O    0.26134   0.17372   0.56276   1.000
    O177    O    0.33610   0.13402   0.49373   1.000
    O178    O    0.27349   0.11391   0.42821   1.000
    O179    O    0.12437   0.13036   0.42057   1.000
    N180    N    0.95161   0.99190   0.34974   1.000
    O181    O    0.08669   0.99600   0.36304   1.000
    O182    O    0.02492   0.93074   0.38321   1.000
    O183    O    0.01095   0.06439   0.32313   1.000
    O184    O    0.87555   0.92236   0.36674   1.000
    N185    N    0.79883   0.50917   0.85171   1.000
    O186    O    0.87622   0.57873   0.86692   1.000
    O187    O    0.73832   0.43580   0.82580   1.000
    O188    O    0.72754   0.57108   0.88522   1.000
    O189    O    0.66455   0.50522   0.86549   1.000
    N190    N    0.54734   0.35297   0.00436   1.000
    O191    O    0.48898   0.33977   0.03819   1.000
    O192    O    0.46406   0.35299   0.01514   1.000
    O193    O    0.52641   0.37322   0.94996   1.000
loop_
    _geom_bond_atom_site_label_1
    _geom_bond_atom_site_label_2
    _geom_bond_distance
    _geom_bond_site_symmetry_2
    _ccdc_geom_bond_type
    Zr22   O60       0.58343      .   S
    Zr49   O60       0.58343      .   S
    Zr22   O61       0.56649      .   S
    Zr48   O61       0.56649      .   S
    Zr49   O62       1.21002      .   S
    Zr5    O62       1.21002      .   S
    Zr48   O63       1.14508      .   S
    Zr11   O63       1.14508      .   S
    Zr20   O64       0.63581  1_554   S
    Zr44   O64       0.63581      .   S
    Zr20   O65       0.64152      .   S
    Zr45   O65       0.64152  1_556   S
    Zr5    O66       1.24503      .   S
    Zr55   O66       1.24503      .   S
    Zr40   O67       1.14566      .   S
    Zr11   O67       1.14566      .   S
    Zr40   O68       0.63513      .   S
    Zr18   O68       0.63513  1_565   S
    Zr11   O69       1.17153      .   S
    Zr34   O69       1.17153      .   S
    Zr11   O70       1.17122      .   S
    Zr54   O70       1.17122      .   S
    Zr55   O71       0.63204      .   S
    Zr25   O71       0.63204      .   S
    Zr18   O72       0.64253      .   S
    Zr41   O72       0.64253  1_545   S
    Zr6    O73       1.24316  1_455   S
    Zr47   O73       1.24316      .   S
    Zr6    O74       1.20882      .   S
    Zr53   O74       1.20882      .   S
    Zr34   O75       0.64764      .   S
    Zr15   O75       0.64764      .   S
    Zr25   O76       0.64737      .   S
    Zr54   O76       0.64737      .   S
    Zr41   O77       1.21396      .   S
    Zr3    O77       1.21396      .   S
    Zr47   O78       0.63190      .   S
    Zr21   O78       0.63190      .   S
    Zr15   O79       0.63212      .   S
    Zr35   O79       0.63212      .   S
    Zr21   O80       0.64779      .   S
    Zr46   O80       0.64779      .   S
    Zr42   O81       0.64756      .   S
    Zr19   O81       0.64756      .   S
    Zr42   O82       1.16959      .   S
    Zr8    O82       1.16959      .   S
    Zr35   O83       1.24268      .   S
    Zr3    O83       1.24268      .   S
    Zr53   O84       0.64196      .   S
    Zr24   O84       0.64196  1_655   S
    Zr19   O85       0.63210      .   S
    Zr43   O85       0.63210      .   S
    Zr46   O86       1.16700      .   S
    Zr8    O86       1.16700  1_455   S
    Zr24   O87       0.63551      .   S
    Zr52   O87       0.63551      .   S
    Zr43   O88       1.24231      .   S
    Zr0    O88       1.24231  1_655   S
    Zr8    O89       1.14224  1_455   S
    Zr52   O89       1.14224      .   S
    Zr8    O90       1.14145      .   S
    Zr28   O90       1.14145      .   S
    Zr0    O91       1.20781      .   S
    Zr29   O91       1.20781      .   S
    Zr28   O92       0.63590      .   S
    Zr12   O92       0.63590      .   S
    Zr14   O93       0.64221      .   S
    Zr33   O93       0.64221      .   S
    Zr14   O94       0.63525      .   S
    Zr32   O94       0.63525      .   S
    Zr29   O95       0.64146  1_655   S
    Zr12   O95       0.64146      .   S
    Zr33   O96       1.21013      .   S
    Zr1    O96       1.21013      .   S
    Zr32   O97       1.14491      .   S
    Zr9    O97       1.14491      .   S
    Zr1    O98       1.24708      .   S
    Zr39   O98       1.24708      .   S
    Zr56   O99       1.14007      .   S
    Zr9    O99       1.14007      .   S
    Zr56   O100      0.63575      .   S
    Zr26   O100      0.63575      .   S
    Zr9    O101      1.17023      .   S
    Zr50   O101      1.17023      .   S
    Zr9    O102      1.16937      .   S
    Zr38   O102      1.16937      .   S
    Zr39   O103      0.63200      .   S
    Zr17   O103      0.63200      .   S
    Zr2    O104      1.24061      .   S
    Zr31   O104      1.24061      .   S
    Zr2    O105      1.20815      .   S
    Zr37   O105      1.20815      .   S
    Zr26   O106      0.64138      .   S
    Zr57   O106      0.64138      .   S
    Zr50   O107      0.64768      .   S
    Zr23   O107      0.64768      .   S
    Zr17   O108      0.64779      .   S
    Zr38   O108      0.64779      .   S
    Zr31   O109      0.63211      .   S
    Zr13   O109      0.63211      .   S
    Zr57   O110      1.20462      .   S
    Zr7    O110      1.20462      .   S
    Zr23   O111      0.63196      .   S
    Zr51   O111      0.63196      .   S
    Zr13   O112      0.64755      .   S
    Zr30   O112      0.64755      .   S
    Zr58   O113      0.64755      .   S
    Zr27   O113      0.64755      .   S
    Zr58   O114      1.17151      .   S
    Zr10   O114      1.17151      .   S
    Zr37   O115      0.58258      .   S
    Zr16   O115      0.58258  1_545   S
    Zr51   O116      1.24747      .   S
    Zr7    O116      1.24747      .   S
    Zr27   O117      0.63213      .   S
    Zr59   O117      0.63213      .   S
    Zr30   O118      1.16833      .   S
    Zr10   O118      1.16833      .   S
    Zr16   O119      0.56688  1_545   S
    Zr36   O119      0.56688      .   S
    Zr59   O120      1.24045      .   S
    Zr4    O120      1.24045      .   S
    Zr10   O121      1.14314      .   S
    Zr36   O121      1.14314      .   S
    Zr10   O122      1.14349      .   S
    Zr44   O122      1.14349      .   S
    Zr4    O123      1.20862      .   S
    Zr45   O123      1.20862      .   S
    Zr30   O124      1.29280      .   S
    Zr4    O124      1.29280      .   S
    Zr34   O125      1.28957      .   S
    Zr5    O125      1.28957      .   S
    Zr38   O126      1.28750      .   S
    Zr7    O126      1.28750      .   S
    Zr42   O127      1.29093      .   S
    Zr6    O127      1.29093      .   S
    Zr46   O128      1.29006      .   S
    Zr0    O128      1.29006      .   S
    Zr50   O129      1.28524      .   S
    Zr1    O129      1.28524      .   S
    Zr54   O130      1.28567      .   S
    Zr3    O130      1.28567      .   S
    Zr58   O131      1.28994      .   S
    Zr2    O131      1.28994      .   S
    N132   O133      1.14376      .   S
    Zr17   O133      1.88876      .   S
    N132   O134      1.22880      .   S
    Zr16   O134      2.15120      .   S
    N135   O136      1.14414      .   S
    Zr15   O136      1.88953      .   S
    N135   O137      1.14013      .   S
    Zr14   O137      1.88450      .   S
    N138   O139      1.14401      .   S
    Zr21   O139      1.88932      .   S
    N138   O140      1.14037      .   S
    Zr20   O140      1.88511      .   S
    N141   O142      1.14027      .   S
    Zr24   O142      1.88468      .   S
    N141   O143      1.14308      .   S
    Zr25   O143      1.88777  1_455   S
    N144   O145      1.14357      .   S
    Zr19   O145      1.88858      .   S
    N144   O146      1.14037      .   S
    Zr18   O146      1.88483      .   S
    N147   O148      1.14378      .   S
    Zr13   O148      1.88890  1_655   S
    N147   O149      1.14025      .   S
    Zr12   O149      1.88479      .   S
    N150   O151      1.14047      .   S
    Zr26   O151      1.88516      .   S
    N150   O152      1.14390      .   S
    Zr27   O152      1.88904      .   S
    N153   O154      1.48237  1_455   S
    Zr4    O154      2.14429  1_556   S
    N153   O155      1.49125  1_455   S
    Zr6    O155      2.10318  1_455   S
    N153   O156      1.54382  1_454   S
    Zr4    O156      1.95193      .   S
    N153   O157      1.53346      .   S
    Zr6    O157      1.95861      .   S
    N158   O159      1.54820      .   S
    Zr6    O159      1.95429      .   S
    N158   O160      1.53366      .   S
    Zr5    O160      1.95929      .   S
    N158   O161      1.49206      .   S
    Zr5    O161      2.10156      .   S
    N158   O162      1.48096      .   S
    Zr6    O162      2.15791      .   S
    N163   O164      1.06863  1_565   S
    Zr1    O164      2.32448      .   S
    N163   O165      0.92786      .   S
    Zr2    O165      2.16959      .   S
    N163   O166      0.92224      .   S
    Zr2    O166      2.12877      .   S
    N167   O168      1.54229      .   S
    Zr0    O168      1.95254      .   S
    N167   O169      1.48319      .   S
    Zr0    O169      2.13939      .   S
    N167   O170      1.49050      .   S
    Zr2    O170      2.10919      .   S
    N167   O171      1.53581      .   S
    Zr2    O171      1.95835      .   S
    N172   O173      1.22811      .   S
    Zr22   O173      2.14902  1_554   S
    N172   O174      1.14381      .   S
    Zr23   O174      1.88884      .   S
    N175   O176      1.53937      .   S
    Zr1    O176      1.96139      .   S
    N175   O177      1.48810      .   S
    Zr1    O177      2.13262      .   S
    N175   O178      1.49398      .   S
    Zr3    O178      2.10457      .   S
    N175   O179      1.53403      .   S
    Zr3    O179      1.96398      .   S
    N180   O181      1.48934  1_655   S
    Zr3    O181      2.12000  1_545   S
    N180   O182      1.49537  1_655   S
    Zr0    O182      2.09757  1_655   S
    N180   O183      1.53517  1_665   S
    Zr3    O183      1.95872      .   S
    N180   O184      1.53168      .   S
    Zr0    O184      1.96316      .   S
    N185   O186      1.53100      .   S
    Zr4    O186      1.96139      .   S
    N185   O187      1.54595      .   S
    Zr7    O187      1.95909      .   S
    N185   O188      1.49362      .   S
    Zr4    O188      2.09606      .   S
    N185   O189      1.48385      .   S
    Zr7    O189      2.15296      .   S
    N190   O191      0.91387      .   S
    Zr5    O191      2.12553      .   S
    N190   O192      0.92730      .   S
    Zr5    O192      2.15894      .   S
    N190   O193      1.07404  1_554   S
    Zr7    O193      2.32531      .   S
