# CIF file generated by openbabel 2.4.90, see http://openbabel.sf.net
data_I
_chemical_name_common ''
_cell_length_a 10.878
_cell_length_b 18.066
_cell_length_c 18.067
_cell_angle_alpha 90.186
_cell_angle_beta 90.212
_cell_angle_gamma 90.427
_space_group_name_H-M_alt 'P 1'
_space_group_name_Hall 'P 1'
loop_
    _symmetry_equiv_pos_as_xyz
    x,y,z
loop_
    _atom_site_label
    _atom_site_type_symbol
    _atom_site_fract_x
    _atom_site_fract_y
    _atom_site_fract_z
    _atom_site_occupancy
    C0      C    0.93890   0.82940   0.40733   1.000
    C1      C    0.43647   0.17084   0.58873   1.000
    C2      C    0.68985   0.91028   0.66911   1.000
    C3      C    0.18600   0.09042   0.32664   1.000
    C4      C    0.81552   0.67239   0.90744   1.000
    C5      C    0.31418   0.32808   0.08921   1.000
    C6      C    0.06549   0.59072   0.16899   1.000
    C7      C    0.56356   0.40897   0.82851   1.000
    C8      C    0.00250   0.63332   0.36543   1.000
    C9      C    0.49865   0.36660   0.63227   1.000
    C10     C    0.75362   0.86901   0.86578   1.000
    C11     C    0.24727   0.13299   0.13089   1.000
    C12     C    0.14485   0.57277   0.60695   1.000
    C13     C    0.16094   0.57887   0.74488   1.000
    C14     C    0.06144   0.68094   0.81345   1.000
    C15     C    0.93043   0.77156   0.60784   1.000
    C16     C    0.64412   0.42956   0.39224   1.000
    C17     C    0.66040   0.42415   0.25440   1.000
    C18     C    0.56046   0.32164   0.18485   1.000
    C19     C    0.42771   0.22961   0.38937   1.000
    C20     C    0.89774   0.11075   0.92686   1.000
    C21     C    0.91263   0.24873   0.92175   1.000
    C22     C    0.81148   0.31683   0.81987   1.000
    C23     C    0.68087   0.11063   0.72754   1.000
    C24     C    0.39688   0.89317   0.06990   1.000
    C25     C    0.41412   0.75544   0.07631   1.000
    C26     C    0.31300   0.68665   0.17797   1.000
    C27     C    0.17800   0.89167   0.26739   1.000
    C28     C    0.60872   0.92846   0.10735   1.000
    C29     C    0.59145   0.92129   0.24508   1.000
    C30     C    0.69160   0.81916   0.31302   1.000
    C31     C    0.82536   0.73051   0.10722   1.000
    C32     C    0.10256   0.06942   0.88977   1.000
    C33     C    0.08855   0.07403   0.75182   1.000
    C34     C    0.18980   0.17605   0.68334   1.000
    C35     C    0.31950   0.26923   0.88918   1.000
    C36     C    0.85501   0.39310   0.42552   1.000
    C37     C    0.83839   0.25513   0.42052   1.000
    C38     C    0.93929   0.18580   0.31930   1.000
    C39     C    0.07227   0.39079   0.22737   1.000
    C40     C    0.35585   0.60648   0.57044   1.000
    C41     C    0.34227   0.74447   0.57449   1.000
    C42     C    0.44376   0.81455   0.67597   1.000
    C43     C    0.57177   0.61028   0.77005   1.000
    C44     C    0.03103   0.67108   0.51649   1.000
    C45     C    0.91269   0.78941   0.75472   1.000
    C46     C    0.03939   0.67288   0.59894   1.000
    C47     C    0.10232   0.61764   0.63777   1.000
    C48     C    0.11013   0.62097   0.71476   1.000
    C49     C    0.05256   0.67782   0.75350   1.000
    C50     C    0.98540   0.73176   0.71521   1.000
    C51     C    0.98117   0.72953   0.63788   1.000
    C52     C    0.52879   0.33054   0.48165   1.000
    C53     C    0.41088   0.21185   0.24241   1.000
    C54     C    0.53760   0.32886   0.39926   1.000
    C55     C    0.60124   0.38457   0.36101   1.000
    C56     C    0.60921   0.38158   0.28405   1.000
    C57     C    0.55145   0.32447   0.24477   1.000
    C58     C    0.48382   0.26993   0.28247   1.000
    C59     C    0.47913   0.27196   0.35978   1.000
    C60     C    0.78327   0.00000   0.82769   1.000
    C61     C    0.66158   0.25744   0.71083   1.000
    C62     C    0.79126   0.10222   0.82637   1.000
    C63     C    0.85452   0.14133   0.88205   1.000
    C64     C    0.86168   0.21836   0.87927   1.000
    C65     C    0.80317   0.25683   0.82254   1.000
    C66     C    0.73564   0.21823   0.76816   1.000
    C67     C    0.73202   0.14089   0.76985   1.000
    C68     C    0.27915   0.98322   0.16681   1.000
    C69     C    0.16229   0.74492   0.28586   1.000
    C70     C    0.28892   0.90091   0.16926   1.000
    C71     C    0.35364   0.86226   0.11456   1.000
    C72     C    0.36211   0.78537   0.11807   1.000
    C73     C    0.30376   0.74651   0.17470   1.000
    C74     C    0.23532   0.78461   0.22827   1.000
    C75     C    0.23010   0.86185   0.22575   1.000
    C76     C    0.72444   0.83134   0.01642   1.000
    C77     C    0.84209   0.71180   0.25412   1.000
    C78     C    0.71535   0.82885   0.09880   1.000
    C79     C    0.65146   0.88355   0.13789   1.000
    C80     C    0.64299   0.87961   0.21477   1.000
    C81     C    0.70088   0.82273   0.25318   1.000
    C82     C    0.76898   0.76932   0.21469   1.000
    C83     C    0.77386   0.77212   0.13743   1.000
    C84     C    0.21685   0.16908   0.00000   1.000
    C85     C    0.33871   0.28599   0.74247   1.000
    C86     C    0.20917   0.17015   0.89796   1.000
    C87     C    0.14608   0.11421   0.85905   1.000
    C88     C    0.13936   0.11673   0.78201   1.000
    C89     C    0.19788   0.17355   0.74334   1.000
    C90     C    0.26506   0.22825   0.78176   1.000
    C91     C    0.26848   0.22671   0.85909   1.000
    C92     C    0.97119   0.48287   0.32742   1.000
    C93     C    0.08898   0.24372   0.21071   1.000
    C94     C    0.96196   0.40043   0.32571   1.000
    C95     C    0.89796   0.36196   0.38101   1.000
    C96     C    0.88986   0.28494   0.37829   1.000
    C97     C    0.94804   0.24580   0.32192   1.000
    C98     C    0.01593   0.28375   0.26782   1.000
    C99     C    0.02066   0.36109   0.26947   1.000
    C100    C    0.46942   0.51746   0.67030   1.000
    C101    C    0.59229   0.75733   0.78593   1.000
    C102    C    0.46194   0.59992   0.67108   1.000
    C103    C    0.39926   0.63794   0.61504   1.000
    C104    C    0.39286   0.71498   0.61723   1.000
    C105    C    0.45154   0.75456   0.67375   1.000
    C106    C    0.51842   0.71707   0.72851   1.000
    C107    C    0.52122   0.63971   0.72741   1.000
    C108    C    0.70591   0.85278   0.50624   1.000
    C109    C    0.20130   0.14702   0.49006   1.000
    C110    C    0.45509   0.00000   0.64412   1.000
    C111    C    0.95161   0.99190   0.34974   1.000
    C112    C    0.04931   0.64737   0.00637   1.000
    C113    C    0.54870   0.35271   0.00000   1.000
    C114    C    0.29867   0.49123   0.14525   1.000
    C115    C    0.79883   0.50917   0.85171   1.000
    C116    C    0.08334   0.61910   0.48126   1.000
    C117    C    0.96902   0.72163   0.48389   1.000
    C118    C    0.89176   0.77958   0.82453   1.000
    C119    C    0.87072   0.84380   0.71904   1.000
    C120    C    0.70704   0.82471   0.44235   1.000
    C121    C    0.80761   0.87847   0.53453   1.000
    C122    C    0.60839   0.85619   0.54387   1.000
    C123    C    0.58335   0.38183   0.51744   1.000
    C124    C    0.46391   0.28048   0.51377   1.000
    C125    C    0.38949   0.22193   0.17261   1.000
    C126    C    0.36916   0.15688   0.27772   1.000
    C127    C    0.20297   0.17468   0.55411   1.000
    C128    C    0.30265   0.12175   0.46207   1.000
    C129    C    0.10382   0.14367   0.45187   1.000
    C130    C    0.83828   0.98457   0.87870   1.000
    C131    C    0.71854   0.98698   0.77772   1.000
    C132    C    0.63982   0.32707   0.72145   1.000
    C133    C    0.61917   0.22179   0.65598   1.000
    C134    C    0.45780   0.94400   0.67177   1.000
    C135    C    0.55597   0.03726   0.61903   1.000
    C136    C    0.35665   0.00000   0.64059   1.000
    C137    C    0.33329   0.01859   0.11560   1.000
    C138    C    0.21374   0.01571   0.21609   1.000
    C139    C    0.14111   0.67496   0.27578   1.000
    C140    C    0.12039   0.78056   0.34044   1.000
    C141    C    0.95260   0.05571   0.32197   1.000
    C142    C    0.05359   0.96452   0.37518   1.000
    C143    C    0.85443   0.95334   0.35321   1.000
    C144    C    0.67232   0.88347   0.98143   1.000
    C145    C    0.78696   0.78109   0.98364   1.000
    C146    C    0.86337   0.72193   0.32404   1.000
    C147    C    0.88409   0.65733   0.21844   1.000
    C148    C    0.04771   0.67545   0.94267   1.000
    C149    C    0.94771   0.62195   0.03446   1.000
    C150    C    0.14720   0.64375   0.04405   1.000
    C151    C    0.16149   0.11820   0.01578   1.000
    C152    C    0.28180   0.21918   0.01304   1.000
    C153    C    0.35990   0.27585   0.67268   1.000
    C154    C    0.38111   0.34082   0.77819   1.000
    C155    C    0.54705   0.32505   0.05484   1.000
    C156    C    0.44738   0.37796   0.96261   1.000
    C157    C    0.64624   0.35618   0.00000   1.000
    C158    C    0.91668   0.51832   0.37839   1.000
    C159    C    0.03642   0.51538   0.27797   1.000
    C160    C    0.10986   0.17410   0.22141   1.000
    C161    C    0.13128   0.27864   0.15577   1.000
    C162    C    0.29736   0.55565   0.17213   1.000
    C163    C    0.19753   0.46262   0.11906   1.000
    C164    C    0.39586   0.45332   0.14361   1.000
    C165    C    0.41642   0.48149   0.61851   1.000
    C166    C    0.53168   0.48562   0.72137   1.000
    C167    C    0.61392   0.82713   0.77565   1.000
    C168    C    0.63453   0.72220   0.84071   1.000
    C169    C    0.79657   0.44474   0.82489   1.000
    C170    C    0.69822   0.53731   0.87782   1.000
    C171    C    0.89645   0.54751   0.85342   1.000
    O172    O    0.59747   0.35445   0.00000   1.000
    O173    O    0.54787   0.33888   0.02742   1.000
    O174    O    0.49804   0.36533   0.98130   1.000
    O175    O    0.24933   0.19413   0.00652   1.000
    O176    O    0.18917   0.14364   0.00789   1.000
    O177    O    0.21301   0.16962   0.94898   1.000
    O178    O    0.99851   0.63466   0.02042   1.000
    O179    O    0.09825   0.64556   0.02521   1.000
    O180    O    0.04851   0.66141   0.97452   1.000
    O181    O    0.29799   0.27363   0.05112   1.000
    O182    O    0.20438   0.12560   0.07333   1.000
    O183    O    0.71989   0.83010   0.05761   1.000
    O184    O    0.69838   0.85740   0.99893   1.000
    O185    O    0.75570   0.80622   0.00003   1.000
    O186    O    0.37526   0.87771   0.09223   1.000
    O187    O    0.38811   0.77041   0.09719   1.000
    O188    O    0.22273   0.30336   0.12249   1.000
    O189    O    0.74460   0.80049   0.11812   1.000
    O190    O    0.68340   0.85620   0.11835   1.000
    O191    O    0.79961   0.75132   0.12232   1.000
    O192    O    0.63009   0.90600   0.12262   1.000
    O193    O    0.35787   0.82382   0.11631   1.000
    O194    O    0.32128   0.88159   0.14191   1.000
    O195    O    0.29028   0.07579   0.12324   1.000
    O196    O    0.30622   0.00091   0.14120   1.000
    O197    O    0.33293   0.76594   0.14638   1.000
    O198    O    0.24810   0.47693   0.13215   1.000
    O199    O    0.31838   0.17746   0.15175   1.000
    O200    O    0.17857   0.15354   0.17615   1.000
    O201    O    0.77142   0.77072   0.17606   1.000
    O202    O    0.64722   0.88158   0.17633   1.000
    O203    O    0.34726   0.47228   0.14443   1.000
    O204    O    0.29801   0.52344   0.15869   1.000
    O205    O    0.11013   0.26118   0.18324   1.000
    O206    O    0.28404   0.94207   0.16803   1.000
    O207    O    0.24645   0.99947   0.19145   1.000
    O208    O    0.97479   0.62403   0.19372   1.000
    O209    O    0.05095   0.55305   0.22348   1.000
    O210    O    0.25951   0.88138   0.19750   1.000
    O211    O    0.40018   0.21689   0.20751   1.000
    O212    O    0.30838   0.71658   0.17633   1.000
    O213    O    0.26954   0.76556   0.20148   1.000
    O214    O    0.55595   0.32306   0.21481   1.000
    O215    O    0.09942   0.20891   0.21606   1.000
    O216    O    0.05246   0.26373   0.23926   1.000
    O217    O    0.73493   0.79603   0.23393   1.000
    O218    O    0.80554   0.74056   0.23441   1.000
    O219    O    0.61722   0.90045   0.22992   1.000
    O220    O    0.67193   0.85117   0.23397   1.000
    O221    O    0.19987   0.05307   0.27137   1.000
    O222    O    0.86309   0.68456   0.23628   1.000
    O223    O    0.23271   0.82323   0.22701   1.000
    O224    O    0.20405   0.87676   0.24657   1.000
    O225    O    0.04646   0.37594   0.24842   1.000
    O226    O    0.19880   0.76476   0.25707   1.000
    O227    O    0.39002   0.18436   0.26006   1.000
    O228    O    0.44735   0.24089   0.26244   1.000
    O229    O    0.51764   0.29720   0.26362   1.000
    O230    O    0.58033   0.35303   0.26441   1.000
    O231    O    0.69624   0.82095   0.28310   1.000
    O232    O    0.85273   0.71686   0.28908   1.000
    O233    O    0.63480   0.40287   0.26922   1.000
    O234    O    0.01829   0.32242   0.26865   1.000
    O235    O    0.98198   0.26478   0.29487   1.000
    O236    O    0.99131   0.38076   0.29759   1.000
    O237    O    0.15170   0.70994   0.28082   1.000
    O238    O    0.07181   0.65414   0.32061   1.000
    O239    O    0.27758   0.12365   0.30218   1.000
    O240    O    0.00381   0.49913   0.30270   1.000
    O241    O    0.48148   0.27095   0.32113   1.000
    O242    O    0.60523   0.38308   0.32253   1.000
    O243    O    0.14133   0.76274   0.31315   1.000
    O244    O    0.94366   0.21580   0.32061   1.000
    O245    O    0.91895   0.26537   0.35011   1.000
    O246    O    0.95210   0.02381   0.33585   1.000
    O247    O    0.93294   0.67763   0.34474   1.000
    O248    O    0.96658   0.44165   0.32657   1.000
    O249    O    0.92996   0.38119   0.35336   1.000
    O250    O    0.94394   0.50059   0.35290   1.000
    O251    O    0.02964   0.80498   0.37388   1.000
    O252    O    0.90302   0.97262   0.35148   1.000
    O253    O    0.00260   0.97821   0.36246   1.000
    O254    O    0.45342   0.25078   0.37457   1.000
    O255    O    0.50836   0.30041   0.37952   1.000
    O256    O    0.62268   0.40706   0.37662   1.000
    O257    O    0.56942   0.35672   0.38013   1.000
    O258    O    0.95959   0.57582   0.37191   1.000
    O259    O    0.04292   0.62621   0.42334   1.000
    O260    O    0.89391   0.32345   0.37965   1.000
    O261    O    0.86413   0.27003   0.39941   1.000
    O262    O    0.87649   0.37753   0.40327   1.000
    O263    O    0.53319   0.32970   0.44045   1.000
    O264    O    0.95396   0.77552   0.44561   1.000
    O265    O    0.70647   0.83875   0.47429   1.000
    O266    O    0.15256   0.14534   0.47096   1.000
    O267    O    0.25197   0.13438   0.47606   1.000
    O268    O    0.05718   0.64509   0.49887   1.000
    O269    O    0.49635   0.30551   0.49771   1.000
    O270    O    0.55607   0.35618   0.49954   1.000
    O271    O    0.00003   0.69635   0.50019   1.000
    O272    O    0.20213   0.16085   0.52208   1.000
    O273    O    0.75676   0.86562   0.52038   1.000
    O274    O    0.65715   0.85448   0.52506   1.000
    O275    O    0.45019   0.22566   0.55125   1.000
    O276    O    0.03521   0.67198   0.55771   1.000
    O277    O    0.54100   0.37422   0.57485   1.000
    O278    O    0.37755   0.62221   0.59274   1.000
    O279    O    0.36757   0.72972   0.59586   1.000
    O280    O    0.52782   0.19632   0.62235   1.000
    O281    O    0.07086   0.64526   0.61836   1.000
    O282    O    0.01028   0.70120   0.61841   1.000
    O283    O    0.12359   0.59520   0.62236   1.000
    O284    O    0.95580   0.75054   0.62286   1.000
    O285    O    0.39606   0.67646   0.61614   1.000
    O286    O    0.43060   0.61893   0.64306   1.000
    O287    O    0.42220   0.73477   0.64549   1.000
    O288    O    0.45753   0.42405   0.62539   1.000
    O289    O    0.44292   0.49947   0.64440   1.000
    O290    O    0.50553   0.01863   0.63158   1.000
    O291    O    0.42927   0.32123   0.65247   1.000
    O292    O    0.56923   0.34684   0.67686   1.000
    O293    O    0.10622   0.61930   0.67627   1.000
    O294    O    0.98328   0.73064   0.67655   1.000
    O295    O    0.40587   0.00000   0.64236   1.000
    O296    O    0.45644   0.97200   0.65794   1.000
    O297    O    0.64037   0.23962   0.68340   1.000
    O298    O    0.78028   0.87704   0.69407   1.000
    O299    O    0.70419   0.94863   0.72341   1.000
    O300    O    0.46568   0.55869   0.67069   1.000
    O301    O    0.50055   0.50154   0.69583   1.000
    O302    O    0.49158   0.61982   0.69924   1.000
    O303    O    0.34931   0.28092   0.70757   1.000
    O304    O    0.44765   0.78456   0.67486   1.000
    O305    O    0.48498   0.73581   0.70113   1.000
    O306    O    0.19384   0.17480   0.71334   1.000
    O307    O    0.65070   0.29226   0.71614   1.000
    O308    O    0.69861   0.23784   0.73949   1.000
    O309    O    0.13553   0.59992   0.72982   1.000
    O310    O    0.08134   0.64939   0.73413   1.000
    O311    O    0.01898   0.70479   0.73435   1.000
    O312    O    0.94905   0.76058   0.73496   1.000
    O313    O    0.89171   0.81660   0.73688   1.000
    O314    O    0.54762   0.44730   0.77494   1.000
    O315    O    0.51982   0.67839   0.72796   1.000
    O316    O    0.54650   0.62500   0.74873   1.000
    O317    O    0.70644   0.12576   0.74870   1.000
    O318    O    0.55535   0.73720   0.75722   1.000
    O319    O    0.35991   0.31341   0.76033   1.000
    O320    O    0.30188   0.25712   0.76212   1.000
    O321    O    0.23147   0.20090   0.76255   1.000
    O322    O    0.16862   0.14514   0.76267   1.000
    O323    O    0.11395   0.09538   0.76691   1.000
    O324    O    0.05700   0.67938   0.78347   1.000
    O325    O    0.90223   0.78450   0.78963   1.000
    O326    O    0.73383   0.17956   0.76901   1.000
    O327    O    0.76941   0.23753   0.79535   1.000
    O328    O    0.76164   0.12155   0.79811   1.000
    O329    O    0.60311   0.79223   0.78079   1.000
    O330    O    0.68377   0.84807   0.82071   1.000
    O331    O    0.75090   0.99349   0.80270   1.000
    O332    O    0.47234   0.37490   0.80335   1.000
    O333    O    0.26677   0.22748   0.82043   1.000
    O334    O    0.14272   0.11547   0.82053   1.000
    O335    O    0.61341   0.73976   0.81332   1.000
    O336    O    0.80733   0.28683   0.82120   1.000
    O337    O    0.83242   0.23760   0.85090   1.000
    O338    O    0.82269   0.82430   0.84515   1.000
    O339    O    0.79770   0.47696   0.83830   1.000
    O340    O    0.78726   0.05111   0.82703   1.000
    O341    O    0.82289   0.12177   0.85421   1.000
    O342    O    0.81077   0.99228   0.85319   1.000
    O343    O    0.72503   0.69730   0.87407   1.000
    O344    O    0.84764   0.52834   0.85257   1.000
    O345    O    0.74852   0.52324   0.86476   1.000
    O346    O    0.12432   0.09182   0.87441   1.000
    O347    O    0.17762   0.14218   0.87851   1.000
    O348    O    0.29399   0.24797   0.87414   1.000
    O349    O    0.23882   0.19843   0.87853   1.000
    O350    O    0.79595   0.92679   0.87224   1.000
    O351    O    0.71297   0.87624   0.92360   1.000
    O352    O    0.85810   0.17985   0.88066   1.000
    O353    O    0.88715   0.23355   0.90051   1.000
    O354    O    0.87613   0.12604   0.90445   1.000
    O355    O    0.80124   0.72674   0.94554   1.000
    O356    O    0.85364   0.72599   0.86598   1.000
    O357    O    0.82297   0.82706   0.42484   1.000
    O358    O    0.87326   0.85394   0.47093   1.000
    O359    O    0.74873   0.89438   0.60182   1.000
    O360    O    0.64912   0.88323   0.60649   1.000
    O361    O    0.35183   0.27500   0.13091   1.000
    O362    O    0.31972   0.17276   0.57142   1.000
    O363    O    0.36956   0.14629   0.52540   1.000
    O364    O    0.24432   0.10608   0.39435   1.000
    O365    O    0.14491   0.11704   0.38926   1.000
    O366    O    0.60169   0.36802   0.77498   1.000
    O367    O    0.57382   0.92714   0.67044   1.000
    O368    O    0.40722   0.97200   0.65618   1.000
    O369    O    0.49622   0.10405   0.60388   1.000
    O370    O    0.62291   0.97377   0.64407   1.000
    O371    O    0.10330   0.63284   0.22239   1.000
    O372    O    0.06930   0.07307   0.32430   1.000
    O373    O    0.99624   0.89696   0.39125   1.000
    O374    O    0.11979   0.02747   0.35091   1.000
    O375    O    0.89667   0.89137   0.38027   1.000
    O376    O    0.90113   0.77567   0.36568   1.000
    O377    O    0.93161   0.67392   0.92505   1.000
    O378    O    0.88162   0.64717   0.97095   1.000
    O379    O    0.00660   0.60633   0.10173   1.000
    O380    O    0.10634   0.61724   0.10652   1.000
    O381    O    0.39819   0.22335   0.63070   1.000
    O382    O    0.43061   0.32656   0.07203   1.000
    O383    O    0.59664   0.34062   0.02742   1.000
    O384    O    0.38078   0.35302   0.02591   1.000
    O385    O    0.50547   0.39347   0.89556   1.000
    O386    O    0.14793   0.13226   0.27402   1.000
    O387    O    0.18143   0.57318   0.17056   1.000
    O388    O    0.25586   0.39535   0.10413   1.000
    O389    O    0.13151   0.52667   0.14402   1.000
    O390    O    0.35502   0.39070   0.11641   1.000
    O391    O    0.65188   0.86870   0.72238   1.000
    O392    O    0.68007   0.42686   0.82670   1.000
    O393    O    0.75687   0.60485   0.89263   1.000
    O394    O    0.63089   0.47314   0.85317   1.000
    O395    O    0.85599   0.60995   0.88043   1.000
loop_
    _geom_bond_atom_site_label_1
    _geom_bond_atom_site_label_2
    _geom_bond_distance
    _geom_bond_site_symmetry_2
    _ccdc_geom_bond_type
    C113   O172      0.53119      .   S
    C157   O172      0.53119      .   S
    C113   O173      0.55565      .   S
    C155   O173      0.55565      .   S
    C113   O174      0.68611  1_554   S
    C156   O174      0.68611      .   S
    C84    O175      0.58343      .   S
    C152   O175      0.58343      .   S
    C84    O176      0.56649      .   S
    C151   O176      0.56649      .   S
    C84    O177      0.92264  1_554   S
    C86    O177      0.92264      .   S
    C112   O178      0.64963  1_455   S
    C149   O178      0.64963      .   S
    C112   O179      0.63192      .   S
    C150   O179      0.63192      .   S
    C112   O180      0.62964  1_554   S
    C148   O180      0.62964      .   S
    C152   O181      1.21002      .   S
    C5     O181      1.21002      .   S
    C151   O182      1.14508      .   S
    C11    O182      1.14508      .   S
    C76    O183      0.74639      .   S
    C78    O183      0.74639      .   S
    C76    O184      0.63581  1_554   S
    C144   O184      0.63581      .   S
    C76    O185      0.64152      .   S
    C145   O185      0.64152  1_556   S
    C24    O186      0.54445      .   S
    C71    O186      0.54445      .   S
    C25    O187      0.54470      .   S
    C72    O187      0.54470      .   S
    C5     O188      1.24503      .   S
    C161   O188      1.24503      .   S
    C78    O189      0.69886      .   S
    C83    O189      0.69886      .   S
    C78    O190      0.70135      .   S
    C79    O190      0.70135      .   S
    C31    O191      0.54377      .   S
    C83    O191      0.54377      .   S
    C28    O192      0.54444      .   S
    C79    O192      0.54444      .   S
    C71    O193      0.69722      .   S
    C72    O193      0.69722      .   S
    C71    O194      0.70143      .   S
    C70    O194      0.70143      .   S
    C137   O195      1.14566      .   S
    C11    O195      1.14566      .   S
    C137   O196      0.63513      .   S
    C68    O196      0.63513  1_565   S
    C72    O197      0.69736      .   S
    C73    O197      0.69736      .   S
    C163   O198      0.64952      .   S
    C114   O198      0.64952      .   S
    C11    O199      1.17153      .   S
    C125   O199      1.17153      .   S
    C11    O200      1.17122      .   S
    C160   O200      1.17122      .   S
    C83    O201      0.69907      .   S
    C82    O201      0.69907      .   S
    C79    O202      0.69717      .   S
    C80    O202      0.69717      .   S
    C164   O203      0.63216      .   S
    C114   O203      0.63216      .   S
    C114   O204      0.62987      .   S
    C162   O204      0.62987      .   S
    C161   O205      0.63204      .   S
    C93    O205      0.63204      .   S
    C68    O206      0.74614      .   S
    C70    O206      0.74614      .   S
    C68    O207      0.64253      .   S
    C138   O207      0.64253  1_545   S
    C6     O208      1.24316  1_455   S
    C147   O208      1.24316      .   S
    C6     O209      1.20882      .   S
    C159   O209      1.20882      .   S
    C70    O210      0.69851      .   S
    C75    O210      0.69851      .   S
    C125   O211      0.64764      .   S
    C53    O211      0.64764      .   S
    C73    O212      0.54429      .   S
    C26    O212      0.54429      .   S
    C73    O213      0.70239      .   S
    C74    O213      0.70239      .   S
    C18    O214      0.54418      .   S
    C57    O214      0.54418      .   S
    C93    O215      0.64737      .   S
    C160   O215      0.64737      .   S
    C93    O216      0.74653      .   S
    C98    O216      0.74653      .   S
    C82    O217      0.70242      .   S
    C81    O217      0.70242      .   S
    C82    O218      0.74715      .   S
    C77    O218      0.74715      .   S
    C80    O219      0.54470      .   S
    C29    O219      0.54470      .   S
    C80    O220      0.69732      .   S
    C81    O220      0.69732      .   S
    C138   O221      1.21396      .   S
    C3     O221      1.21396      .   S
    C147   O222      0.63190      .   S
    C77    O222      0.63190      .   S
    C75    O223      0.69899      .   S
    C74    O223      0.69899      .   S
    C75    O224      0.54373      .   S
    C27    O224      0.54373      .   S
    C39    O225      0.54379      .   S
    C99    O225      0.54379      .   S
    C74    O226      0.74675      .   S
    C69    O226      0.74675      .   S
    C53    O227      0.63212      .   S
    C126   O227      0.63212      .   S
    C53    O228      0.74715      .   S
    C58    O228      0.74715      .   S
    C57    O229      0.70240      .   S
    C58    O229      0.70240      .   S
    C57    O230      0.69738      .   S
    C56    O230      0.69738      .   S
    C81    O231      0.54416      .   S
    C30    O231      0.54416      .   S
    C77    O232      0.64779      .   S
    C146   O232      0.64779      .   S
    C17    O233      0.54471      .   S
    C56    O233      0.54471      .   S
    C98    O234      0.69904      .   S
    C99    O234      0.69904      .   S
    C98    O235      0.70232  1_455   S
    C97    O235      0.70232      .   S
    C99    O236      0.69856  1_455   S
    C94    O236      0.69856      .   S
    C139   O237      0.64756      .   S
    C69    O237      0.64756      .   S
    C139   O238      1.16959      .   S
    C8     O238      1.16959      .   S
    C126   O239      1.24268      .   S
    C3     O239      1.24268      .   S
    C159   O240      0.64196      .   S
    C92    O240      0.64196  1_655   S
    C58    O241      0.69906      .   S
    C59    O241      0.69906      .   S
    C56    O242      0.69716      .   S
    C55    O242      0.69716      .   S
    C69    O243      0.63210      .   S
    C140   O243      0.63210      .   S
    C38    O244      0.54417      .   S
    C97    O244      0.54417      .   S
    C97    O245      0.69722      .   S
    C96    O245      0.69722      .   S
    C141   O246      0.62943      .   S
    C111   O246      0.62943  1_565   S
    C146   O247      1.16700      .   S
    C8     O247      1.16700  1_455   S
    C94    O248      0.74613      .   S
    C92    O248      0.74613      .   S
    C94    O249      0.70148      .   S
    C95    O249      0.70148      .   S
    C92    O250      0.63551      .   S
    C158   O250      0.63551      .   S
    C140   O251      1.24231      .   S
    C0     O251      1.24231  1_655   S
    C111   O252      0.63172      .   S
    C143   O252      0.63172      .   S
    C111   O253      0.65044  1_655   S
    C142   O253      0.65044      .   S
    C59    O254      0.54374      .   S
    C19    O254      0.54374      .   S
    C59    O255      0.69860      .   S
    C54    O255      0.69860      .   S
    C55    O256      0.54447      .   S
    C16    O256      0.54447      .   S
    C55    O257      0.70139      .   S
    C54    O257      0.70139      .   S
    C8     O258      1.14224  1_455   S
    C158   O258      1.14224      .   S
    C8     O259      1.14145      .   S
    C116   O259      1.14145      .   S
    C96    O260      0.69715      .   S
    C95    O260      0.69715      .   S
    C96    O261      0.54472      .   S
    C37    O261      0.54472      .   S
    C95    O262      0.54438      .   S
    C36    O262      0.54438      .   S
    C54    O263      0.74604      .   S
    C52    O263      0.74604      .   S
    C0     O264      1.20781      .   S
    C117   O264      1.20781      .   S
    C120   O265      0.62969      .   S
    C108   O265      0.62969      .   S
    C129   O266      0.63191      .   S
    C109   O266      0.63191      .   S
    C128   O267      0.64996      .   S
    C109   O267      0.64996      .   S
    C116   O268      0.63590      .   S
    C44    O268      0.63590      .   S
    C52    O269      0.64221      .   S
    C124   O269      0.64221      .   S
    C52    O270      0.63525      .   S
    C123   O270      0.63525      .   S
    C117   O271      0.64146  1_655   S
    C44    O271      0.64146      .   S
    C109   O272      0.62953      .   S
    C127   O272      0.62953      .   S
    C108   O273      0.64950      .   S
    C121   O273      0.64950      .   S
    C108   O274      0.63197      .   S
    C122   O274      0.63197      .   S
    C124   O275      1.21013      .   S
    C1     O275      1.21013      .   S
    C44    O276      0.74617      .   S
    C46    O276      0.74617      .   S
    C123   O277      1.14491      .   S
    C9     O277      1.14491      .   S
    C40    O278      0.54443      .   S
    C103   O278      0.54443      .   S
    C41    O279      0.54472      .   S
    C104   O279      0.54472      .   S
    C1     O280      1.24708      .   S
    C133   O280      1.24708      .   S
    C46    O281      0.70140      .   S
    C47    O281      0.70140      .   S
    C46    O282      0.69856      .   S
    C51    O282      0.69856  1_655   S
    C12    O283      0.54440      .   S
    C47    O283      0.54440      .   S
    C15    O284      0.54373      .   S
    C51    O284      0.54373      .   S
    C103   O285      0.69724      .   S
    C104   O285      0.69724      .   S
    C103   O286      0.70141      .   S
    C102   O286      0.70141      .   S
    C104   O287      0.69737      .   S
    C105   O287      0.69737      .   S
    C165   O288      1.14007      .   S
    C9     O288      1.14007      .   S
    C165   O289      0.63575      .   S
    C100   O289      0.63575      .   S
    C135   O290      0.68144      .   S
    C110   O290      0.68144      .   S
    C9     O291      1.17023      .   S
    C153   O291      1.17023      .   S
    C9     O292      1.16937      .   S
    C132   O292      1.16937      .   S
    C47    O293      0.69717      .   S
    C48    O293      0.69717      .   S
    C51    O294      0.69901      .   S
    C50    O294      0.69901      .   S
    C136   O295      0.53627      .   S
    C110   O295      0.53627      .   S
    C110   O296      0.56510  1_545   S
    C134   O296      0.56510      .   S
    C133   O297      0.63200      .   S
    C61    O297      0.63200      .   S
    C2     O298      1.24061      .   S
    C119   O298      1.24061      .   S
    C2     O299      1.20815      .   S
    C131   O299      1.20815      .   S
    C100   O300      0.74632      .   S
    C102   O300      0.74632      .   S
    C100   O301      0.64138      .   S
    C166   O301      0.64138      .   S
    C102   O302      0.69855      .   S
    C107   O302      0.69855      .   S
    C153   O303      0.64768      .   S
    C85    O303      0.64768      .   S
    C105   O304      0.54415      .   S
    C42    O304      0.54415      .   S
    C105   O305      0.70236      .   S
    C106   O305      0.70236      .   S
    C34    O306      0.54414      .   S
    C89    O306      0.54414      .   S
    C61    O307      0.64779      .   S
    C132   O307      0.64779      .   S
    C61    O308      0.74687      .   S
    C66    O308      0.74687      .   S
    C48    O309      0.54471      .   S
    C13    O309      0.54471      .   S
    C48    O310      0.69733      .   S
    C49    O310      0.69733      .   S
    C50    O311      0.70231  1_655   S
    C49    O311      0.70231      .   S
    C50    O312      0.74690      .   S
    C45    O312      0.74690      .   S
    C119   O313      0.63211      .   S
    C45    O313      0.63211      .   S
    C166   O314      1.20462      .   S
    C7     O314      1.20462      .   S
    C107   O315      0.69906      .   S
    C106   O315      0.69906      .   S
    C107   O316      0.54371      .   S
    C43    O316      0.54371      .   S
    C23    O317      0.54375      .   S
    C67    O317      0.54375      .   S
    C106   O318      0.74689      .   S
    C101   O318      0.74689      .   S
    C85    O319      0.63196      .   S
    C154   O319      0.63196      .   S
    C85    O320      0.74679      .   S
    C90    O320      0.74679      .   S
    C89    O321      0.70242      .   S
    C90    O321      0.70242      .   S
    C89    O322      0.69734      .   S
    C88    O322      0.69734      .   S
    C33    O323      0.54474      .   S
    C88    O323      0.54474      .   S
    C49    O324      0.54415      .   S
    C14    O324      0.54415      .   S
    C45    O325      0.64755      .   S
    C118   O325      0.64755      .   S
    C66    O326      0.69899      .   S
    C67    O326      0.69899      .   S
    C66    O327      0.70241      .   S
    C65    O327      0.70241      .   S
    C67    O328      0.69866      .   S
    C62    O328      0.69866      .   S
    C167   O329      0.64755      .   S
    C101   O329      0.64755      .   S
    C167   O330      1.17151      .   S
    C10    O330      1.17151      .   S
    C131   O331      0.58258      .   S
    C60    O331      0.58258  1_545   S
    C154   O332      1.24747      .   S
    C7     O332      1.24747      .   S
    C90    O333      0.69890      .   S
    C91    O333      0.69890      .   S
    C88    O334      0.69722      .   S
    C87    O334      0.69722      .   S
    C101   O335      0.63213      .   S
    C168   O335      0.63213      .   S
    C22    O336      0.54409      .   S
    C65    O336      0.54409      .   S
    C65    O337      0.69730      .   S
    C64    O337      0.69730      .   S
    C118   O338      1.16833      .   S
    C10    O338      1.16833      .   S
    C169   O339      0.62966      .   S
    C115   O339      0.62966      .   S
    C62    O340      0.92413      .   S
    C60    O340      0.92413      .   S
    C62    O341      0.70140      .   S
    C63    O341      0.70140      .   S
    C60    O342      0.56688  1_545   S
    C130   O342      0.56688      .   S
    C168   O343      1.24045      .   S
    C4     O343      1.24045      .   S
    C115   O344      0.63191      .   S
    C171   O344      0.63191      .   S
    C115   O345      0.64987      .   S
    C170   O345      0.64987      .   S
    C87    O346      0.54448      .   S
    C32    O346      0.54448      .   S
    C87    O347      0.70147      .   S
    C86    O347      0.70147      .   S
    C91    O348      0.54372      .   S
    C35    O348      0.54372      .   S
    C91    O349      0.69851      .   S
    C86    O349      0.69851      .   S
    C10    O350      1.14314      .   S
    C130   O350      1.14314      .   S
    C10    O351      1.14349      .   S
    C144   O351      1.14349      .   S
    C64    O352      0.69719      .   S
    C63    O352      0.69719      .   S
    C64    O353      0.54473      .   S
    C21    O353      0.54473      .   S
    C63    O354      0.54442      .   S
    C20    O354      0.54442      .   S
    C4     O355      1.20862      .   S
    C145   O355      1.20862      .   S
    C118   O356      1.29280      .   S
    C4     O356      1.29280      .   S
    C120   O357      1.30170      .   S
    C0     O357      1.30170      .   S
    C121   O358      1.42626      .   S
    C0     O358      1.42626      .   S
    C121   O359      1.40613      .   S
    C2     O359      1.40613      .   S
    C122   O360      1.30557      .   S
    C2     O360      1.30557      .   S
    C125   O361      1.28957      .   S
    C5     O361      1.28957      .   S
    C127   O362      1.30759      .   S
    C1     O362      1.30759      .   S
    C128   O363      1.42175      .   S
    C1     O363      1.42175      .   S
    C128   O364      1.40304      .   S
    C3     O364      1.40304      .   S
    C129   O365      1.30932      .   S
    C3     O365      1.30932      .   S
    C132   O366      1.28750      .   S
    C7     O366      1.28750      .   S
    C134   O367      1.30086      .   S
    C2     O367      1.30086      .   S
    C134   O368      0.80107      .   S
    C136   O368      0.80107  1_545   S
    C135   O369      1.40210      .   S
    C1     O369      1.40210      .   S
    C135   O370      1.43664  1_545   S
    C2     O370      1.43664      .   S
    C139   O371      1.29093      .   S
    C6     O371      1.29093      .   S
    C141   O372      1.30581  1_655   S
    C3     O372      1.30581      .   S
    C142   O373      1.39838  1_455   S
    C0     O373      1.39838      .   S
    C142   O374      1.41334  1_565   S
    C3     O374      1.41334      .   S
    C143   O375      1.30877      .   S
    C0     O375      1.30877      .   S
    C146   O376      1.29006      .   S
    C0     O376      1.29006      .   S
    C148   O377      1.30129  1_455   S
    C4     O377      1.30129      .   S
    C149   O378      1.42953  1_554   S
    C4     O378      1.42953      .   S
    C149   O379      1.40212  1_655   S
    C6     O379      1.40212      .   S
    C150   O380      1.30574      .   S
    C6     O380      1.30574      .   S
    C153   O381      1.28524      .   S
    C1     O381      1.28524      .   S
    C155   O382      1.30563      .   S
    C5     O382      1.30563      .   S
    C155   O383      0.78498      .   S
    C157   O383      0.78498      .   S
    C156   O384      1.42843  1_556   S
    C5     O384      1.42843      .   S
    C156   O385      1.39658      .   S
    C7     O385      1.39658      .   S
    C160   O386      1.28567      .   S
    C3     O386      1.28567      .   S
    C162   O387      1.30286      .   S
    C6     O387      1.30286      .   S
    C163   O388      1.40104      .   S
    C5     O388      1.40104      .   S
    C163   O389      1.43860      .   S
    C6     O389      1.43860      .   S
    C164   O390      1.30619      .   S
    C5     O390      1.30619      .   S
    C167   O391      1.28994      .   S
    C2     O391      1.28994      .   S
    C169   O392      1.30606      .   S
    C7     O392      1.30606      .   S
    C170   O393      1.39737      .   S
    C4     O393      1.39737      .   S
    C170   O394      1.43531      .   S
    C7     O394      1.43531      .   S
    C171   O395      1.30760      .   S
    C4     O395      1.30760      .   S
