# CIF file generated by openbabel 2.4.90, see http://openbabel.sf.net
data_I
_chemical_name_common ''
_cell_length_a 10.878
_cell_length_b 18.066
_cell_length_c 18.067
_cell_angle_alpha 90.186
_cell_angle_beta 90.212
_cell_angle_gamma 90.427
_space_group_name_H-M_alt 'P 1'
_space_group_name_Hall 'P 1'
loop_
    _symmetry_equiv_pos_as_xyz
    x,y,z
loop_
    _atom_site_label
    _atom_site_type_symbol
    _atom_site_fract_x
    _atom_site_fract_y
    _atom_site_fract_z
    _atom_site_occupancy
    N0      N    0.80810   0.18648   0.83442   1.000
    N1      N    0.55551   0.33663   0.31522   1.000
    N2      N    0.69706   0.83556   0.18294   1.000
    N3      N    0.94394   0.31628   0.33369   1.000
    N4      N    0.30759   0.81684   0.16222   1.000
    N5      N    0.05686   0.66547   0.68312   1.000
    N6      N    0.44589   0.68400   0.66240   1.000
    N7      N    0.04931   0.64737   0.00637   1.000
    N8      N    0.29867   0.49123   0.14525   1.000
    N9      N    0.45638   0.99532   0.64388   1.000
    N10     N    0.70591   0.85278   0.50624   1.000
    N11     N    0.19264   0.16183   0.81373   1.000
    N12     N    0.20130   0.14702   0.49006   1.000
    N13     N    0.95161   0.99190   0.34974   1.000
    N14     N    0.79883   0.50917   0.85171   1.000
    N15     N    0.54734   0.35297   0.00436   1.000
    Zr16    Zr   0.24889   0.15751   0.15698   1.000
    O17     O    0.23779   0.29325   0.13429   1.000
    O18     O    0.36894   0.24864   0.09759   1.000
    O19     O    0.35648   0.25525   0.08606   1.000
    O20     O    0.31217   0.28976   0.14349   1.000
    O21     O    0.37516   0.22313   0.22290   1.000
    O22     O    0.27235   0.01848   0.16105   1.000
    O23     O    0.26119   0.13571   0.29259   1.000
    O24     O    0.12992   0.11095   0.24006   1.000
    O25     O    0.18663   0.14393   0.28877   1.000
    O26     O    0.16779   0.07675   0.26001   1.000
    O27     O    0.12355   0.22376   0.22173   1.000
    O28     O    0.22586   0.16162   0.01917   1.000
    Zr29    Zr   0.49950   0.34219   0.65694   1.000
    O30     O    0.38042   0.25795   0.60985   1.000
    O31     O    0.41780   0.23810   0.57534   1.000
    O32     O    0.48790   0.19594   0.64041   1.000
    O33     O    0.62643   0.27717   0.72195   1.000
    O34     O    0.52193   0.33768   0.51739   1.000
    O35     O    0.58203   0.42371   0.76122   1.000
    O36     O    0.61891   0.38899   0.74137   1.000
    O37     O    0.51296   0.35770   0.80345   1.000
    O38     O    0.37338   0.27583   0.72243   1.000
    O39     O    0.47764   0.48176   0.66174   1.000
    Zr40    Zr   0.00186   0.65822   0.34039   1.000
    O41     O    0.98951   0.63618   0.20424   1.000
    O42     O    0.06431   0.64436   0.20784   1.000
    O43     O    0.08319   0.57643   0.23597   1.000
    O44     O    0.12063   0.61132   0.25587   1.000
    O45     O    0.12753   0.72451   0.27502   1.000
    O46     O    0.97856   0.51859   0.33526   1.000
    O47     O    0.02395   0.66347   0.48040   1.000
    O48     O    0.93871   0.79029   0.35356   1.000
    O49     O    0.92115   0.76221   0.42156   1.000
    O50     O    0.88343   0.74205   0.38699   1.000
    O51     O    0.01339   0.79448   0.36180   1.000
    O52     O    0.87658   0.72314   0.27453   1.000
    Zr53    Zr   0.75325   0.84257   0.84057   1.000
    O54     O    0.62693   0.77658   0.77519   1.000
    O55     O    0.83396   0.73857   0.92164   1.000
    O56     O    0.74039   0.70683   0.86289   1.000
    O57     O    0.81473   0.71065   0.85375   1.000
    O58     O    0.87145   0.75863   0.88722   1.000
    O59     O    0.87810   0.77780   0.77480   1.000
    O60     O    0.64645   0.91356   0.74227   1.000
    O61     O    0.76571   0.86450   0.70437   1.000
    O62     O    0.69100   0.85614   0.70787   1.000
    O63     O    0.63417   0.90190   0.74886   1.000
    O64     O    0.73086   0.83770   0.98042   1.000
    O65     O    0.77547   0.98068   0.83565   1.000
loop_
    _geom_bond_atom_site_label_1
    _geom_bond_atom_site_label_2
    _geom_bond_distance
    _geom_bond_site_symmetry_2
    _ccdc_geom_bond_type
    Zr16   O17       2.49134      .   S
    N8     O17       3.63737      .   S
    Zr16   O18       2.35731      .   S
    N15    O18       3.18534      .   S
    Zr16   O19       2.47479      .   S
    N15    O19       3.09694      .   S
    Zr16   O20       2.49444      .   S
    N8     O20       3.64389      .   S
    Zr16   O21       2.15997      .   S
    N1     O21       3.27546      .   S
    Zr16   O22       2.52774      .   S
    N4     O22       3.66583  1_565   S
    Zr16   O23       2.48614      .   S
    N12    O23       3.63426      .   S
    Zr16   O24       2.15445      .   S
    N13    O24       3.50848  1_665   S
    Zr16   O25       2.49036      .   S
    N12    O25       3.63971      .   S
    Zr16   O26       2.52635      .   S
    N13    O26       3.24026  1_665   S
    Zr16   O27       2.16503      .   S
    N3     O27       3.28013  1_655   S
    Zr16   O28       2.50288      .   S
    N11    O28       3.72783  1_556   S
    Zr29   O30       2.16137      .   S
    N12    O30       3.51852      .   S
    Zr29   O31       2.53905      .   S
    N12    O31       3.24455      .   S
    Zr29   O32       2.66004      .   S
    N9     O32       3.63879  1_565   S
    Zr29   O33       2.16484      .   S
    N0     O33       3.28017      .   S
    Zr29   O34       2.53507      .   S
    N1     O34       3.67218      .   S
    Zr29   O35       2.54436      .   S
    N14    O35       3.24337      .   S
    Zr29   O36       2.16554      .   S
    N14    O36       3.52104      .   S
    Zr29   O37       2.66427      .   S
    N15    O37       3.64905  1_554   S
    Zr29   O38       2.17164      .   S
    N11    O38       3.28840      .   S
    Zr29   O39       2.53580      .   S
    N6     O39       3.67234      .   S
    Zr40   O41       2.49349  1_455   S
    N7     O41       3.64199  1_455   S
    Zr40   O42       2.50404      .   S
    N7     O42       3.64352      .   S
    Zr40   O43       2.55717      .   S
    N8     O43       3.25810      .   S
    Zr40   O44       2.17752      .   S
    N8     O44       3.53760      .   S
    Zr40   O45       2.16673      .   S
    N4     O45       3.28251      .   S
    Zr40   O46       2.53473  1_455   S
    N3     O46       3.67157      .   S
    Zr40   O47       2.54152      .   S
    N5     O47       3.67863      .   S
    Zr40   O48       2.49866  1_455   S
    N13    O48       3.64482      .   S
    Zr40   O49       2.54308  1_455   S
    N10    O49       3.25067      .   S
    Zr40   O50       2.16589  1_455   S
    N10    O50       3.52596      .   S
    Zr40   O51       2.49283      .   S
    N13    O51       3.64127  1_655   S
    Zr40   O52       2.16086  1_455   S
    N2     O52       3.27619      .   S
    Zr53   O54       2.15841      .   S
    N6     O54       3.27539      .   S
    Zr53   O55       2.54549      .   S
    N7     O55       3.25475  1_454   S
    Zr53   O56       2.48963      .   S
    N14    O56       3.63675      .   S
    Zr53   O57       2.49204      .   S
    N14    O57       3.64287      .   S
    Zr53   O58       2.16630      .   S
    N7     O58       3.53172  1_454   S
    Zr53   O59       2.15689      .   S
    N5     O59       3.27171  1_455   S
    Zr53   O60       2.48394      .   S
    N9     O60       3.10677      .   S
    Zr53   O61       2.49761      .   S
    N10    O61       3.64113      .   S
    Zr53   O62       2.50203      .   S
    N10    O62       3.64750      .   S
    Zr53   O63       2.36390      .   S
    N9     O63       3.19825      .   S
    Zr53   O64       2.54112      .   S
    N2     O64       3.67902  1_554   S
    Zr53   O65       2.50690      .   S
    N0     O65       3.73236  1_545   S
