# CIF file generated by openbabel 2.4.90, see http://openbabel.sf.net
data_I
_chemical_name_common ''
_cell_length_a 18.604
_cell_length_b 19.052
_cell_length_c 19.059
_cell_angle_alpha 70.331
_cell_angle_beta 70.885
_cell_angle_gamma 108.967
_space_group_name_H-M_alt 'P 1'
_space_group_name_Hall 'P 1'
loop_
    _symmetry_equiv_pos_as_xyz
    x,y,z
loop_
    _atom_site_label
    _atom_site_type_symbol
    _atom_site_fract_x
    _atom_site_fract_y
    _atom_site_fract_z
    _atom_site_occupancy
    H0      H    0.50295   0.37802   0.27152   1.000
    H1      H    0.36414   0.23465   0.00852   1.000
    H2      H    0.77534   0.27146   0.35025   1.000
    H3      H    0.37174   0.00938   0.75750   1.000
    H4      H    0.12608   0.35002   0.37686   1.000
    H5      H    0.13149   0.75661   0.23529   1.000
    H6      H    0.72430   0.35036   0.27167   1.000
    H7      H    0.12803   0.75714   0.00936   1.000
    H8      H    0.37464   0.37687   0.35010   1.000
    H9      H    0.36853   0.23554   0.75690   1.000
    H10     H    0.99649   0.27148   0.37830   1.000
    H11     H    0.13626   0.00909   0.23390   1.000
    H12     H    0.49703   0.62197   0.72848   1.000
    H13     H    0.63584   0.76535   0.99148   1.000
    H14     H    0.22464   0.72854   0.64976   1.000
    H15     H    0.62823   0.99061   0.24244   1.000
    H16     H    0.87390   0.64998   0.62314   1.000
    H17     H    0.86849   0.24340   0.76471   1.000
    H18     H    0.27568   0.64964   0.72830   1.000
    H19     H    0.87195   0.24286   0.99064   1.000
    H20     H    0.62534   0.62313   0.64982   1.000
    H21     H    0.63144   0.76446   0.24311   1.000
    H22     H    0.00349   0.72852   0.62170   1.000
    H23     H    0.86372   0.99091   0.76606   1.000
    H24     H    0.73313   0.48325   0.03429   1.000
    H25     H    0.57330   0.32408   0.35160   1.000
    H26     H    0.76685   0.03429   0.48336   1.000
    H27     H    0.92608   0.35150   0.32414   1.000
    H28     H    0.24992   0.48255   0.48260   1.000
    H29     H    0.25053   0.32330   0.32330   1.000
    H30     H    0.26685   0.51675   0.96571   1.000
    H31     H    0.42668   0.67591   0.64833   1.000
    H32     H    0.23313   0.96571   0.51665   1.000
    H33     H    0.07390   0.64850   0.67586   1.000
    H34     H    0.75006   0.51745   0.51734   1.000
    H35     H    0.74944   0.67670   0.67670   1.000
    H36     H    0.24996   0.24065   0.24068   1.000
    H37     H    0.25025   0.08169   0.08080   1.000
    H38     H    0.49042   0.24010   0.51994   1.000
    H39     H    0.32939   0.08266   0.83750   1.000
    H40     H    0.00947   0.51971   0.24023   1.000
    H41     H    0.17055   0.83712   0.08242   1.000
    H42     H    0.75001   0.75934   0.75932   1.000
    H43     H    0.74973   0.91831   0.91921   1.000
    H44     H    0.50955   0.75990   0.48007   1.000
    H45     H    0.67059   0.91734   0.16200   1.000
    H46     H    0.99052   0.48029   0.75977   1.000
    H47     H    0.82943   0.16289   0.91758   1.000
    C48     C    0.56724   0.45649   0.09925   1.000
    C49     C    0.61229   0.43122   0.14782   1.000
    C50     C    0.56851   0.38848   0.23750   1.000
    C51     C    0.37857   0.34083   0.07574   1.000
    C52     C    0.31242   0.24788   0.11929   1.000
    C53     C    0.31346   0.20219   0.07496   1.000
    C54     C    0.66658   0.09942   0.44445   1.000
    C55     C    0.76029   0.14783   0.42128   1.000
    C56     C    0.80664   0.23742   0.37398   1.000
    C57     C    0.45394   0.07536   0.58458   1.000
    C58     C    0.43109   0.11931   0.63386   1.000
    C59     C    0.38749   0.07571   0.72354   1.000
    C60     C    0.11112   0.44415   0.45572   1.000
    C61     C    0.18161   0.42073   0.43042   1.000
    C62     C    0.18091   0.37352   0.38761   1.000
    C63     C    0.03835   0.58385   0.34094   1.000
    C64     C    0.06540   0.63328   0.24803   1.000
    C65     C    0.11284   0.72287   0.20264   1.000
    C66     C    0.83331   0.44448   0.09954   1.000
    C67     C    0.73952   0.42128   0.14794   1.000
    C68     C    0.69300   0.37398   0.23757   1.000
    C69     C    0.04593   0.58428   0.07547   1.000
    C70     C    0.06875   0.63353   0.11937   1.000
    C71     C    0.11236   0.72316   0.07567   1.000
    O72     O    0.97449   0.49408   0.88739   1.000
    O73     O    0.11967   0.48847   0.97380   1.000
    O74     O    0.95224   0.37503   0.99416   1.000
    O75     O    0.53685   0.53309   0.60340   1.000
    O76     O    0.48002   0.61865   0.49422   1.000
    O77     O    0.63117   0.53703   0.48884   1.000
    O78     O    0.57705   0.62937   0.37562   1.000
    O79     O    0.00000   0.86447   0.53126   1.000
    C80     C    0.38896   0.45570   0.44433   1.000
    C81     C    0.31863   0.43036   0.42088   1.000
    C82     C    0.31967   0.38758   0.37365   1.000
    C83     C    0.46163   0.34097   0.58402   1.000
    C84     C    0.43452   0.24806   0.63350   1.000
    C85     C    0.38712   0.20280   0.72310   1.000
    C86     C    0.93258   0.09927   0.45670   1.000
    C87     C    0.88745   0.14779   0.43138   1.000
    C88     C    0.93103   0.23742   0.38871   1.000
    C89     C    0.12149   0.07581   0.34063   1.000
    C90     C    0.18774   0.11951   0.24750   1.000
    C91     C    0.18684   0.07546   0.20161   1.000
    C92     C    0.43274   0.54351   0.90075   1.000
    C93     C    0.38769   0.56878   0.85218   1.000
    C94     C    0.43147   0.61152   0.76250   1.000
    C95     C    0.62141   0.65917   0.92426   1.000
    C96     C    0.68756   0.75211   0.88071   1.000
    C97     C    0.68652   0.79781   0.92500   1.000
    C98     C    0.33340   0.90058   0.55550   1.000
    C99     C    0.23969   0.85217   0.57873   1.000
    C100    C    0.19334   0.76258   0.62602   1.000
    C101    C    0.54604   0.92463   0.41543   1.000
    C102    C    0.56889   0.88068   0.36615   1.000
    C103    C    0.61249   0.92429   0.27647   1.000
    C104    C    0.88885   0.55585   0.54428   1.000
    C105    C    0.81837   0.57927   0.56958   1.000
    C106    C    0.81907   0.62647   0.61239   1.000
    C107    C    0.96163   0.41615   0.65906   1.000
    C108    C    0.93458   0.36672   0.75190   1.000
    C109    C    0.88714   0.27714   0.79736   1.000
    C110    C    0.16667   0.55552   0.90046   1.000
    C111    C    0.26046   0.57871   0.85207   1.000
    C112    C    0.30698   0.62602   0.76243   1.000
    C113    C    0.95405   0.41572   0.92453   1.000
    C114    C    0.93123   0.36647   0.88063   1.000
    C115    C    0.88762   0.27684   0.92433   1.000
    C116    C    0.61102   0.54429   0.55568   1.000
    C117    C    0.68135   0.56963   0.57913   1.000
    C118    C    0.68030   0.61242   0.62635   1.000
    C119    C    0.53834   0.65902   0.41598   1.000
    C120    C    0.56546   0.75194   0.36640   1.000
    C121    C    0.61285   0.79720   0.27685   1.000
    C122    C    0.06739   0.90072   0.54330   1.000
    C123    C    0.11252   0.85220   0.56863   1.000
    C124    C    0.06895   0.76257   0.61100   1.000
    C125    C    0.87849   0.92419   0.65937   1.000
    C126    C    0.81223   0.88049   0.75242   1.000
    C127    C    0.81313   0.92454   0.79839   1.000
    C128    C    0.69807   0.44830   0.10300   1.000
    C129    C    0.60841   0.35901   0.28199   1.000
    C130    C    0.80177   0.10376   0.44843   1.000
    C131    C    0.89112   0.28185   0.35908   1.000
    C132    C    0.25004   0.44766   0.44777   1.000
    C133    C    0.25038   0.35825   0.35831   1.000
    C134    C    0.30191   0.55170   0.89621   1.000
    C135    C    0.39157   0.64098   0.71801   1.000
    C136    C    0.19821   0.89624   0.55158   1.000
    C137    C    0.10886   0.71815   0.64093   1.000
    C138    C    0.74994   0.55233   0.55223   1.000
    C139    C    0.74960   0.64175   0.64169   1.000
    C140    C    0.25002   0.20582   0.20567   1.000
    C141    C    0.25020   0.11657   0.11591   1.000
    C142    C    0.45516   0.20558   0.58951   1.000
    C143    C    0.36479   0.11724   0.76779   1.000
    C144    C    0.04474   0.58924   0.20564   1.000
    C145    C    0.13512   0.76743   0.11708   1.000
    C146    C    0.74995   0.79418   0.79433   1.000
    C147    C    0.74978   0.88342   0.88409   1.000
    C148    C    0.54481   0.79441   0.41050   1.000
    C149    C    0.63519   0.88276   0.23222   1.000
    C150    C    0.95524   0.41076   0.79436   1.000
    C151    C    0.86485   0.23257   0.88292   1.000
    O152    O    0.50483   0.46849   0.13550   1.000
    O153    O    0.36136   0.38198   0.11323   1.000
    O154    O    0.59401   0.46283   0.02559   1.000
    O155    O    0.44641   0.36974   0.00000   1.000
    O156    O    0.64041   0.13553   0.39646   1.000
    O157    O    0.47421   0.11242   0.50625   1.000
    O158    O    0.61960   0.02610   0.51153   1.000
    O159    O    0.45201   0.00000   0.62525   1.000
    O160    O    0.03705   0.39643   0.46696   1.000
    O161    O    0.98014   0.50565   0.38142   1.000
    O162    O    0.13111   0.51106   0.46280   1.000
    O163    O    0.07691   0.62429   0.37052   1.000
    O164    O    0.85949   0.39647   0.13565   1.000
    O165    O    0.02549   0.50592   0.11262   1.000
    O166    O    0.88031   0.51153   0.02619   1.000
    O167    O    0.04775   0.62497   0.00000   1.000
    O168    O    0.46313   0.46690   0.39660   1.000
    O169    O    0.51995   0.38134   0.50579   1.000
    O170    O    0.36880   0.46296   0.51117   1.000
    O171    O    0.42292   0.37062   0.62439   1.000
    O172    O    0.99485   0.13552   0.46874   1.000
    O173    O    0.13850   0.11315   0.38190   1.000
    O174    O    0.90609   0.02570   0.46291   1.000
    O175    O    0.05381   0.00000   0.36952   1.000
    O176    O    0.49515   0.53150   0.86445   1.000
    O177    O    0.63862   0.61802   0.88677   1.000
    O178    O    0.40598   0.53717   0.97441   1.000
    O179    O    0.55357   0.63026   0.99417   1.000
    O180    O    0.35957   0.86447   0.60355   1.000
    O181    O    0.52576   0.88758   0.49376   1.000
    O182    O    0.38037   0.97390   0.48848   1.000
    O183    O    0.54797   0.99435   0.37476   1.000
    O184    O    0.96293   0.60357   0.53304   1.000
    O185    O    0.01985   0.49435   0.61858   1.000
    O186    O    0.86887   0.48894   0.53700   1.000
    O187    O    0.92307   0.37571   0.62948   1.000
    O188    O    0.14049   0.60353   0.86436   1.000
    O189    O    0.86148   0.88685   0.61810   1.000
    O190    O    0.09389   0.97430   0.53709   1.000
    O191    O    0.94617   0.99411   0.63048   1.000
loop_
    _geom_bond_atom_site_label_1
    _geom_bond_atom_site_label_2
    _geom_bond_distance
    _geom_bond_site_symmetry_2
    _ccdc_geom_bond_type
    O155   C51       1.34154      .   S
    O167   C69       1.36800      .   S
    H1     C53       1.08937      .   S
    H7     C71       1.08930      .   S
    O154   C48       1.27368      .   S
    O166   C66       1.27357      .   S
    H24    C128      1.07470      .   S
    C53    C141      1.39587      .   S
    C53    C52       1.40262      .   S
    C69    O165      1.27195      .   S
    C69    C70       1.50433      .   S
    C71    C145      1.39590      .   S
    C71    C70       1.40258      .   S
    C51    O153      1.27204      .   S
    C51    C52       1.50472      .   S
    H37    C141      1.09040      .   S
    H41    C145      1.09041      .   S
    C48    O152      1.27728      .   S
    C48    C49       1.50380      .   S
    C66    O164      1.27779      .   S
    C66    C67       1.50377      .   S
    C128   C49       1.40166      .   S
    C128   C67       1.40958      .   S
    C141   C91       1.39587      .   S
    C145   C65       1.39580      .   S
    C52    C140      1.39843      .   S
    C70    C144      1.39820      .   S
    C49    C50       1.40288      .   S
    C67    C68       1.40276      .   S
    H45    C149      1.09820      .   S
    C91    H11       1.08939      .   S
    C91    C90       1.40140      .   S
    C65    H5        1.08927      .   S
    C65    C64       1.40261      .   S
    C144   H40       1.08800      .   S
    C144   C64       1.39805      .   S
    C140   H36       1.08798      .   S
    C140   C90       1.39866      .   S
    C149   C103      1.39592      .   S
    C149   C121      1.39584      .   S
    C50    H0        1.08846      .   S
    C50    C129      1.39566      .   S
    C68    H6        1.08860      .   S
    C68    C129      1.39569      .   S
    H15    C103      1.08925      .   S
    H21    C121      1.08939      .   S
    C90    C89       1.50605      .   S
    C64    C63       1.50381      .   S
    C103   C102      1.40271      .   S
    C121   C120      1.40121      .   S
    C129   H25       1.08866      .   S
    H29    C133      1.08980      .   S
    H27    C131      1.08990      .   S
    C89    O175      1.34275      .   S
    C89    O173      1.27212      .   S
    C63    O163      1.27433      .   S
    C63    O161      1.27206  1_455   S
    H8     C82       1.08878      .   S
    H2     C56       1.08854      .   S
    C133   C82       1.39571      .   S
    C133   C62       1.39573      .   S
    C131   C56       1.39575      .   S
    C131   C88       1.39570      .   S
    C102   C148      1.39812      .   S
    C102   C101      1.50441      .   S
    C120   C148      1.39911      .   S
    C120   C119      1.50403      .   S
    C82    C81       1.40285      .   S
    C56    C55       1.40280      .   S
    O183   C101      1.27444      .   S
    O78    C119      1.27426      .   S
    H4     C62       1.08851      .   S
    H10    C88       1.08850      .   S
    C62    C61       1.40290      .   S
    C88    C87       1.40286      .   S
    O156   C54       1.27771      .   S
    O168   C80       1.27781      .   S
    C148   H44       1.08804      .   S
    C101   O181      1.27200      .   S
    C119   O76       1.27208      .   S
    C81    C80       1.50406      .   S
    C81    C132      1.39945      .   S
    C55    C54       1.50386      .   S
    C55    C130      1.39952      .   S
    C61    C132      1.39950      .   S
    C61    C60       1.50411      .   S
    C87    C130      1.39942      .   S
    C87    C86       1.50400      .   S
    C80    O170      1.27363      .   S
    C54    O158      1.27360      .   S
    C132   H28       1.08594      .   S
    C130   H26       1.08706      .   S
    C60    O162      1.27359      .   S
    C60    O160      1.27781      .   S
    C86    O174      1.27378      .   S
    C86    O172      1.27763      .   S
    O182   C98       1.27314      .   S
    O77    C116      1.27363      .   S
    O169   C83       1.27197      .   S
    O157   C57       1.27199      .   S
    H32    C136      1.08706      .   S
    H34    C138      1.08687      .   S
    H38    C142      1.08804      .   S
    O79    C122      1.35422      .   S
    O184   C104      1.27780      .   S
    O186   C104      1.27563      .   S
    O190   C122      1.27382      .   S
    C122   C123      1.50405      .   S
    C104   C105      1.50413      .   S
    C136   C123      1.39942      .   S
    C136   C99       1.39949      .   S
    C138   C105      1.39952      .   S
    C138   C117      1.39947      .   S
    C98    C99       1.50353      .   S
    C98    O180      1.27846      .   S
    C116   C117      1.50408      .   S
    C116   O75       1.27775      .   S
    C123   C124      1.40298      .   S
    C105   C106      1.40288      .   S
    C99    C100      1.40280      .   S
    C117   C118      1.40269      .   S
    C83    O171      1.27434      .   S
    C83    C84       1.50380      .   S
    C57    O159      1.36487      .   S
    C57    C58       1.50441      .   S
    C142   C84       1.39762      .   S
    C142   C58       1.39812      .   S
    C124   H22       1.08638      .   S
    C124   C137      1.39786      .   S
    C106   H16       1.08851      .   S
    C106   C139      1.39573      .   S
    O189   C125      1.27213      .   S
    O185   C107      1.27206  1_455   S
    C100   C137      1.39567      .   S
    C100   H14       1.08863      .   S
    C118   C139      1.39573      .   S
    C118   H20       1.08853      .   S
    O187   C107      1.27432      .   S
    O191   C125      1.27475      .   S
    C84    C85       1.40198      .   S
    C58    C59       1.40271      .   S
    C137   H33       1.08988      .   S
    C139   H35       1.08978      .   S
    H31    C135      1.08975      .   S
    C107   C108      1.50267      .   S
    C125   C126      1.50494      .   S
    C135   C112      1.39568      .   S
    C135   C94       1.39568      .   S
    C85    H9        1.09016      .   S
    C85    C143      1.39598      .   S
    C59    H3        1.08910      .   S
    C59    C143      1.39591      .   S
    H18    C112      1.08897      .   S
    H12    C94       1.08846      .   S
    C108   C150      1.39923      .   S
    C108   C109      1.40260      .   S
    C126   C146      1.39852      .   S
    C126   C127      1.40265      .   S
    H42    C146      1.08796      .   S
    H46    C150      1.08798      .   S
    C112   C111      1.40291      .   S
    C94    C93       1.40288      .   S
    H17    C109      1.08929      .   S
    H23    C127      1.08933      .   S
    C143   H39       1.09024      .   S
    C146   C96       1.39843      .   S
    C150   C114      1.39820      .   S
    C109   C151      1.39580      .   S
    C127   C147      1.39586      .   S
    C111   C134      1.39954      .   S
    C111   C110      1.50375      .   S
    C93    C134      1.39933      .   S
    C93    C92       1.50381      .   S
    O188   C110      1.27771      .   S
    O176   C92       1.27759      .   S
    C114   C115      1.40258      .   S
    C114   C113      1.50431      .   S
    C96    C95       1.50471      .   S
    C96    C97       1.40199      .   S
    C151   H47       1.09041      .   S
    C151   C115      1.39590      .   S
    C147   H43       1.09054      .   S
    C147   C97       1.39596      .   S
    O177   C95       1.27204      .   S
    O72    C113      1.27194      .   S
    C134   H30       1.08695      .   S
    C110   O73       1.27345      .   S
    C92    O178      1.27369      .   S
    C95    O179      1.27446      .   S
    C115   H19       1.08930      .   S
    C113   O74       1.27446      .   S
    C97    H13       1.08990      .   S
