# CIF file generated by openbabel 2.4.90, see http://openbabel.sf.net
data_I
_chemical_name_common ''
_cell_length_a 18.604
_cell_length_b 19.052
_cell_length_c 19.059
_cell_angle_alpha 70.331
_cell_angle_beta 70.885
_cell_angle_gamma 108.967
_space_group_name_H-M_alt 'P 1'
_space_group_name_Hall 'P 1'
loop_
    _symmetry_equiv_pos_as_xyz
    x,y,z
loop_
    _atom_site_label
    _atom_site_type_symbol
    _atom_site_fract_x
    _atom_site_fract_y
    _atom_site_fract_z
    _atom_site_occupancy
    Zr0     Zr   0.44450   0.50911   0.06955   1.000
    Zr1     Zr   0.51392   0.06924   0.42196   1.000
    Zr2     Zr   0.93594   0.42207   0.50805   1.000
    Zr3     Zr   0.98605   0.42192   0.06920   1.000
    Zr4     Zr   0.56414   0.50791   0.42211   1.000
    Zr5     Zr   0.05530   0.06948   0.50919   1.000
    Zr6     Zr   0.55548   0.49089   0.93045   1.000
    Zr7     Zr   0.48605   0.93075   0.57805   1.000
    Zr8     Zr   0.06404   0.57793   0.49195   1.000
    Zr9     Zr   0.01393   0.57808   0.93081   1.000
    Zr10    Zr   0.43583   0.49208   0.57790   1.000
    Zr11    Zr   0.94468   0.93052   0.49081   1.000
    O12     O    0.49999   0.50000   0.00000   1.000
    O13     O    0.49999   0.00000   0.50000   1.000
    O14     O    0.99999   0.50000   0.50000   1.000
    O15     O    0.99999   0.50000   0.00000   1.000
    O16     O    0.49999   0.50000   0.50000   1.000
    O17     O    0.99999   1.00000   0.50000   1.000
    N18     N    0.25009   0.17594   0.17562   1.000
    O19     O    0.32651   0.31074   0.13350   1.000
    O20     O    0.17350   0.13363   0.31058   1.000
    O21     O    0.12467   0.07060   0.30289   1.000
    O22     O    0.37552   0.30313   0.07042   1.000
    N23     N    0.74982   0.58199   0.58191   1.000
    O24     O    0.67374   0.55223   0.51869   1.000
    O25     O    0.61808   0.54729   0.58628   1.000
    O26     O    0.82611   0.51875   0.55222   1.000
    O27     O    0.88165   0.58637   0.54720   1.000
    N28     N    0.33169   0.58135   0.83703   1.000
    O29     O    0.37846   0.55225   0.92950   1.000
    O30     O    0.20445   0.58608   0.86731   1.000
    O31     O    0.19228   0.51827   0.92926   1.000
    O32     O    0.42850   0.54627   0.86724   1.000
    N33     N    0.92540   0.35194   0.82359   1.000
    O34     O    0.94727   0.37521   0.92763   1.000
    O35     O    0.95980   0.44401   0.86634   1.000
    O36     O    0.98367   0.44404   0.68943   1.000
    O37     O    0.92745   0.37541   0.69618   1.000
    N38     N    0.66829   0.41864   0.16291   1.000
    O39     O    0.62152   0.44775   0.07047   1.000
    O40     O    0.79553   0.41392   0.13267   1.000
    O41     O    0.57148   0.45372   0.13272   1.000
    O42     O    0.80771   0.48172   0.07071   1.000
    N43     N    0.42531   0.17607   0.64834   1.000
    O44     O    0.42734   0.30371   0.62474   1.000
    O45     O    0.45969   0.13345   0.55622   1.000
    O46     O    0.48368   0.31035   0.55614   1.000
    O47     O    0.44717   0.07072   0.62499   1.000
    N48     N    0.74989   0.82369   0.82401   1.000
    O49     O    0.67347   0.68907   0.86631   1.000
    O50     O    0.62446   0.69669   0.92793   1.000
    O51     O    0.87531   0.92774   0.69692   1.000
    O52     O    0.82648   0.86619   0.68923   1.000
    N53     N    0.83145   0.16290   0.41873   1.000
    O54     O    0.87842   0.07050   0.44780   1.000
    O55     O    0.92826   0.13270   0.45385   1.000
    O56     O    0.70431   0.13264   0.41397   1.000
    O57     O    0.69214   0.07066   0.48176   1.000
    N58     N    0.57467   0.82358   0.35162   1.000
    O59     O    0.57263   0.69611   0.37524   1.000
    O60     O    0.55281   0.92769   0.37499   1.000
    O61     O    0.54029   0.86637   0.44376   1.000
    O62     O    0.51630   0.68947   0.44384   1.000
    N63     N    0.07458   0.64807   0.17604   1.000
    O64     O    0.01631   0.55596   0.31039   1.000
    O65     O    0.07253   0.62459   0.30364   1.000
    O66     O    0.05271   0.62480   0.07072   1.000
    O67     O    0.04018   0.55599   0.13348   1.000
    N68     N    0.16821   0.83710   0.58125   1.000
    O69     O    0.30768   0.92934   0.51824   1.000
    O70     O    0.12140   0.92949   0.55220   1.000
    O71     O    0.07027   0.86730   0.54614   1.000
    O72     O    0.29551   0.86736   0.58603   1.000
    N73     N    0.25016   0.41800   0.41807   1.000
    O74     O    0.17387   0.48125   0.44772   1.000
    O75     O    0.11833   0.41363   0.45279   1.000
    O76     O    0.32624   0.44776   0.48130   1.000
    O77     O    0.38190   0.45271   0.41371   1.000
loop_
    _geom_bond_atom_site_label_1
    _geom_bond_atom_site_label_2
    _geom_bond_distance
    _geom_bond_site_symmetry_2
    _ccdc_geom_bond_type
    Zr0    O12       1.49269      .   S
    Zr6    O12       1.49269  1_556   S
    Zr1    O13       1.49140      .   S
    Zr7    O13       1.49141  1_565   S
    Zr2    O14       1.49155      .   S
    Zr8    O14       1.49155  1_455   S
    Zr3    O15       1.49126      .   S
    Zr9    O15       1.49126  1_456   S
    Zr4    O16       1.49101      .   S
    Zr10   O16       1.49101      .   S
    Zr5    O17       1.49346  1_445   S
    Zr11   O17       1.49346      .   S
    N18    O19       2.18010      .   S
    Zr0    O19       3.21576      .   S
    N18    O20       2.18033      .   S
    Zr5    O20       3.21632      .   S
    N18    O21       2.30830      .   S
    Zr11   O21       3.32634  1_665   S
    N18    O22       2.30791      .   S
    Zr6    O22       3.32621  1_556   S
    N23    O24       2.19811      .   S
    Zr4    O24       3.26250      .   S
    N23    O25       2.28618      .   S
    Zr10   O25       3.28283      .   S
    N23    O26       2.19806      .   S
    Zr2    O26       3.26187      .   S
    N23    O27       2.28636      .   S
    Zr8    O27       3.28288  1_455   S
    N28    O29       2.19803      .   S
    Zr0    O29       3.26131  1_554   S
    N28    O30       2.28546      .   S
    Zr9    O30       3.28116      .   S
    N28    O31       2.19706      .   S
    Zr3    O31       3.25990  1_654   S
    N28    O32       2.28581      .   S
    Zr6    O32       3.28242      .   S
    N33    O34       2.30163      .   S
    Zr3    O34       3.32664  1_554   S
    N33    O35       2.17364      .   S
    Zr9    O35       3.20921  1_455   S
    N33    O36       2.17256      .   S
    Zr8    O36       3.20626  1_455   S
    N33    O37       2.30115      .   S
    Zr2    O37       3.32617      .   S
    N38    O39       2.19755      .   S
    Zr6    O39       3.26084  1_556   S
    N38    O40       2.28551      .   S
    Zr3    O40       3.28116      .   S
    N38    O41       2.28567      .   S
    Zr0    O41       3.28202      .   S
    N38    O42       2.19694      .   S
    Zr9    O42       3.25972  1_456   S
    N43    O44       2.30441      .   S
    Zr10   O44       3.32931      .   S
    N43    O45       2.17083      .   S
    Zr1    O45       3.20637      .   S
    N43    O46       2.17485      .   S
    Zr4    O46       3.20848      .   S
    N43    O47       2.32483      .   S
    Zr7    O47       3.29713  1_565   S
    N48    O49       2.17629      .   S
    Zr6    O49       3.21202      .   S
    N48    O50       2.30205      .   S
    Zr0    O50       3.32815  1_554   S
    N48    O51       2.30230      .   S
    Zr5    O51       3.32835  1_445   S
    N48    O52       2.17649      .   S
    Zr11   O52       3.21255      .   S
    N53    O54       2.19756      .   S
    Zr11   O54       3.26059  1_565   S
    N53    O55       2.28627      .   S
    Zr5    O55       3.28287  1_455   S
    N53    O56       2.28576      .   S
    Zr1    O56       3.28163      .   S
    N53    O57       2.19714      .   S
    Zr7    O57       3.26007  1_565   S
    N58    O59       2.30103      .   S
    Zr4    O59       3.32601      .   S
    N58    O60       2.30187      .   S
    Zr1    O60       3.32677  1_545   S
    N58    O61       2.17372      .   S
    Zr7    O61       3.20930      .   S
    N58    O62       2.17247      .   S
    Zr10   O62       3.20606      .   S
    N63    O64       2.17518      .   S
    Zr2    O64       3.20892  1_655   S
    N63    O65       2.30461      .   S
    Zr8    O65       3.32958      .   S
    N63    O66       2.32552      .   S
    Zr9    O66       3.29606  1_556   S
    N63    O67       2.17098      .   S
    Zr3    O67       3.20652  1_655   S
    N68    O69       2.19937      .   S
    Zr1    O69       3.26225  1_545   S
    N68    O70       2.19532      .   S
    Zr5    O70       3.25839  1_545   S
    N68    O71       2.30634      .   S
    Zr11   O71       3.25747  1_655   S
    N68    O72       2.28874      .   S
    Zr7    O72       3.28454      .   S
    N73    O74       2.19789      .   S
    Zr8    O74       3.26217      .   S
    N73    O75       2.28634      .   S
    Zr2    O75       3.28287  1_655   S
    N73    O76       2.19832      .   S
    Zr10   O76       3.26271      .   S
    N73    O77       2.28626      .   S
    Zr4    O77       3.28295      .   S
