# CIF file generated by openbabel 2.4.90, see http://openbabel.sf.net
data_I
_chemical_name_common ''
_cell_length_a 18.604
_cell_length_b 19.052
_cell_length_c 19.059
_cell_angle_alpha 70.331
_cell_angle_beta 70.885
_cell_angle_gamma 108.967
_space_group_name_H-M_alt 'P 1'
_space_group_name_Hall 'P 1'
loop_
    _symmetry_equiv_pos_as_xyz
    x,y,z
loop_
    _atom_site_label
    _atom_site_type_symbol
    _atom_site_fract_x
    _atom_site_fract_y
    _atom_site_fract_z
    _atom_site_occupancy
    C0      C    0.44450   0.50911   0.06955   1.000
    C1      C    0.51392   0.06924   0.42196   1.000
    C2      C    0.93594   0.42207   0.50805   1.000
    C3      C    0.98605   0.42192   0.06920   1.000
    C4      C    0.56414   0.50791   0.42211   1.000
    C5      C    0.05530   0.06948   0.50919   1.000
    C6      C    0.55548   0.49089   0.93045   1.000
    C7      C    0.48605   0.93075   0.57805   1.000
    C8      C    0.06404   0.57793   0.49195   1.000
    C9      C    0.01393   0.57808   0.93081   1.000
    C10     C    0.43583   0.49208   0.57790   1.000
    C11     C    0.94468   0.93052   0.49081   1.000
    C12     C    0.50295   0.37802   0.27152   1.000
    C13     C    0.36414   0.23465   0.00852   1.000
    C14     C    0.42035   0.70090   0.30830   1.000
    C15     C    0.18666   0.59354   0.25268   1.000
    C16     C    0.15956   0.51326   0.17481   1.000
    C17     C    0.27436   0.48054   0.10463   1.000
    C18     C    0.52354   0.65627   0.24377   1.000
    C19     C    0.28201   0.66148   0.30171   1.000
    C20     C    0.49302   0.57569   0.16823   1.000
    C21     C    0.77534   0.27146   0.35025   1.000
    C22     C    0.37174   0.00938   0.75750   1.000
    C23     C    0.72417   0.30303   0.99350   1.000
    C24     C    0.43640   0.25075   0.15823   1.000
    C25     C    0.33316   0.17502   0.31601   1.000
    C26     C    0.37897   0.10573   0.41743   1.000
    C27     C    0.76397   0.23925   0.10125   1.000
    C28     C    0.57979   0.29791   0.04064   1.000
    C29     C    0.65958   0.16608   0.25704   1.000
    C30     C    0.12608   0.35002   0.37686   1.000
    C31     C    0.13149   0.75661   0.23529   1.000
    C32     C    0.71709   0.99350   0.70317   1.000
    C33     C    0.59329   0.15742   0.59255   1.000
    C34     C    0.64804   0.31500   0.51025   1.000
    C35     C    0.79594   0.41681   0.47708   1.000
    C36     C    0.86542   0.10145   0.65777   1.000
    C37     C    0.61922   0.04020   0.66243   1.000
    C38     C    0.91700   0.25707   0.57504   1.000
    C39     C    0.72430   0.35036   0.27167   1.000
    C40     C    0.12803   0.75714   0.00936   1.000
    C41     C    0.77568   0.99365   0.30300   1.000
    C42     C    0.06322   0.15791   0.25108   1.000
    C43     C    0.16651   0.31557   0.17515   1.000
    C44     C    0.12088   0.41711   0.10563   1.000
    C45     C    0.73608   0.10151   0.23921   1.000
    C46     C    0.91992   0.04055   0.29827   1.000
    C47     C    0.84049   0.25718   0.16584   1.000
    C48     C    0.37464   0.37687   0.35010   1.000
    C49     C    0.36853   0.23554   0.75690   1.000
    C50     C    0.78348   0.70353   0.99332   1.000
    C51     C    0.90720   0.59263   0.15703   1.000
    C52     C    0.85219   0.50989   0.31467   1.000
    C53     C    0.70410   0.47660   0.41667   1.000
    C54     C    0.63482   0.65765   0.10145   1.000
    C55     C    0.88146   0.66286   0.03988   1.000
    C56     C    0.58308   0.57472   0.25709   1.000
    C57     C    0.99649   0.27148   0.37830   1.000
    C58     C    0.13626   0.00909   0.23390   1.000
    C59     C    0.07932   0.30830   0.70091   1.000
    C60     C    0.31296   0.25202   0.59350   1.000
    C61     C    0.34001   0.17393   0.51339   1.000
    C62     C    0.22530   0.10403   0.48070   1.000
    C63     C    0.97614   0.24384   0.65651   1.000
    C64     C    0.21766   0.30147   0.66133   1.000
    C65     C    0.00675   0.16824   0.57590   1.000
    C66     C    0.49703   0.62197   0.72848   1.000
    C67     C    0.63584   0.76535   0.99148   1.000
    C68     C    0.57962   0.29909   0.69170   1.000
    C69     C    0.81332   0.40645   0.74732   1.000
    C70     C    0.84042   0.48673   0.82519   1.000
    C71     C    0.72562   0.51945   0.89537   1.000
    C72     C    0.47644   0.34373   0.75623   1.000
    C73     C    0.71796   0.33851   0.69829   1.000
    C74     C    0.50696   0.42431   0.83177   1.000
    C75     C    0.22464   0.72854   0.64976   1.000
    C76     C    0.62823   0.99061   0.24244   1.000
    C77     C    0.27580   0.69696   0.00650   1.000
    C78     C    0.56358   0.74924   0.84178   1.000
    C79     C    0.66682   0.82497   0.68400   1.000
    C80     C    0.62101   0.89427   0.58258   1.000
    C81     C    0.23601   0.76074   0.89875   1.000
    C82     C    0.42019   0.70209   0.95937   1.000
    C83     C    0.34039   0.83392   0.74297   1.000
    C84     C    0.87390   0.64998   0.62314   1.000
    C85     C    0.86849   0.24340   0.76471   1.000
    C86     C    0.28288   0.00650   0.29684   1.000
    C87     C    0.40669   0.84258   0.40746   1.000
    C88     C    0.35194   0.68500   0.48975   1.000
    C89     C    0.20404   0.58319   0.52292   1.000
    C90     C    0.13455   0.89855   0.34223   1.000
    C91     C    0.38075   0.95980   0.33757   1.000
    C92     C    0.08298   0.74293   0.42496   1.000
    C93     C    0.27568   0.64964   0.72830   1.000
    C94     C    0.87195   0.24286   0.99064   1.000
    C95     C    0.22429   0.00635   0.69671   1.000
    C96     C    0.93676   0.84208   0.74893   1.000
    C97     C    0.83347   0.68443   0.82485   1.000
    C98     C    0.87910   0.58288   0.89438   1.000
    C99     C    0.26390   0.89849   0.76079   1.000
    C100    C    0.08005   0.95945   0.70173   1.000
    C101    C    0.15949   0.74282   0.83416   1.000
    C102    C    0.62534   0.62313   0.64982   1.000
    C103    C    0.63144   0.76446   0.24311   1.000
    C104    C    0.21650   0.29647   0.00668   1.000
    C105    C    0.09277   0.40736   0.84298   1.000
    C106    C    0.14779   0.49010   0.68534   1.000
    C107    C    0.29588   0.52340   0.58334   1.000
    C108    C    0.36515   0.34234   0.89856   1.000
    C109    C    0.11851   0.33713   0.96013   1.000
    C110    C    0.41689   0.42527   0.74291   1.000
    C111    C    0.00349   0.72852   0.62170   1.000
    C112    C    0.86372   0.99091   0.76606   1.000
    C113    C    0.92066   0.69169   0.29900   1.000
    C114    C    0.68701   0.74797   0.40650   1.000
    C115    C    0.65997   0.82606   0.48662   1.000
    C116    C    0.77467   0.89597   0.51928   1.000
    C117    C    0.02383   0.75615   0.34349   1.000
    C118    C    0.78231   0.69853   0.33860   1.000
    C119    C    0.99323   0.83176   0.42410   1.000
    C120    C    0.73313   0.48325   0.03429   1.000
    C121    C    0.57330   0.32408   0.35160   1.000
    C122    C    0.76685   0.03429   0.48336   1.000
    C123    C    0.92608   0.35150   0.32414   1.000
    C124    C    0.24992   0.48255   0.48260   1.000
    C125    C    0.25053   0.32330   0.32330   1.000
    C126    C    0.26685   0.51675   0.96571   1.000
    C127    C    0.42668   0.67591   0.64833   1.000
    C128    C    0.23313   0.96571   0.51665   1.000
    C129    C    0.07390   0.64850   0.67586   1.000
    C130    C    0.75006   0.51745   0.51734   1.000
    C131    C    0.74944   0.67670   0.67670   1.000
    C132    C    0.24996   0.24065   0.24068   1.000
    C133    C    0.25025   0.08169   0.08080   1.000
    C134    C    0.49042   0.24010   0.51994   1.000
    C135    C    0.32939   0.08266   0.83750   1.000
    C136    C    0.00947   0.51971   0.24023   1.000
    C137    C    0.17055   0.83712   0.08242   1.000
    C138    C    0.75001   0.75934   0.75932   1.000
    C139    C    0.74973   0.91831   0.91921   1.000
    C140    C    0.50955   0.75990   0.48007   1.000
    C141    C    0.67059   0.91734   0.16200   1.000
    C142    C    0.99052   0.48029   0.75977   1.000
    C143    C    0.82943   0.16289   0.91758   1.000
    C144    C    0.56724   0.45649   0.09925   1.000
    C145    C    0.61229   0.43122   0.14782   1.000
    C146    C    0.56851   0.38848   0.23750   1.000
    C147    C    0.37857   0.34083   0.07574   1.000
    C148    C    0.31242   0.24788   0.11929   1.000
    C149    C    0.31346   0.20219   0.07496   1.000
    C150    C    0.40605   0.66647   0.27482   1.000
    C151    C    0.23374   0.57651   0.22242   1.000
    C152    C    0.21878   0.53235   0.17983   1.000
    C153    C    0.28241   0.51297   0.14114   1.000
    C154    C    0.46523   0.64162   0.23724   1.000
    C155    C    0.31141   0.60038   0.22730   1.000
    C156    C    0.32996   0.64557   0.27067   1.000
    C157    C    0.37253   0.57685   0.18785   1.000
    C158    C    0.44915   0.59745   0.19470   1.000
    C159    C    0.66658   0.09942   0.44445   1.000
    C160    C    0.76029   0.14783   0.42128   1.000
    C161    C    0.80664   0.23742   0.37398   1.000
    C162    C    0.45394   0.07536   0.58458   1.000
    C163    C    0.43109   0.11931   0.63386   1.000
    C164    C    0.38749   0.07571   0.72354   1.000
    C165    C    0.67710   0.27056   0.06131   1.000
    C166    C    0.45380   0.22088   0.20483   1.000
    C167    C    0.39719   0.17950   0.29141   1.000
    C168    C    0.42277   0.14124   0.34862   1.000
    C169    C    0.69936   0.23344   0.12292   1.000
    C170    C    0.53617   0.22515   0.17535   1.000
    C171    C    0.59713   0.26719   0.08700   1.000
    C172    C    0.55844   0.18609   0.23751   1.000
    C173    C    0.64175   0.19228   0.20936   1.000
    C174    C    0.11112   0.44415   0.45572   1.000
    C175    C    0.18161   0.42073   0.43042   1.000
    C176    C    0.18091   0.37352   0.38761   1.000
    C177    C    0.03835   0.58385   0.34094   1.000
    C178    C    0.06540   0.63328   0.24803   1.000
    C179    C    0.11284   0.72287   0.20264   1.000
    C180    C    0.73791   0.06125   0.66780   1.000
    C181    C    0.65763   0.20415   0.57520   1.000
    C182    C    0.68769   0.29063   0.52990   1.000
    C183    C    0.77088   0.34804   0.51033   1.000
    C184    C    0.82222   0.12298   0.64255   1.000
    C185    C    0.71079   0.17494   0.59984   1.000
    C186    C    0.68329   0.08669   0.64619   1.000
    C187    C    0.79568   0.23727   0.57597   1.000
    C188    C    0.85116   0.20933   0.59719   1.000
    C189    C    0.83331   0.44448   0.09954   1.000
    C190    C    0.73952   0.42128   0.14794   1.000
    C191    C    0.69300   0.37398   0.23757   1.000
    C192    C    0.04593   0.58428   0.07547   1.000
    C193    C    0.06875   0.63353   0.11937   1.000
    C194    C    0.11236   0.72316   0.07567   1.000
    C195    C    0.82279   0.06141   0.27072   1.000
    C196    C    0.04591   0.20457   0.22100   1.000
    C197    C    0.10256   0.29108   0.17958   1.000
    C198    C    0.07706   0.34836   0.14121   1.000
    C199    C    0.80062   0.12308   0.23345   1.000
    C200    C    0.96365   0.17523   0.22524   1.000
    C201    C    0.90265   0.08696   0.26744   1.000
    C202    C    0.94145   0.23746   0.18610   1.000
    C203    C    0.85826   0.20945   0.19215   1.000
    C204    C    0.38896   0.45570   0.44433   1.000
    C205    C    0.31863   0.43036   0.42088   1.000
    C206    C    0.31967   0.38758   0.37365   1.000
    C207    C    0.46163   0.34097   0.58402   1.000
    C208    C    0.43452   0.24806   0.63350   1.000
    C209    C    0.38712   0.20280   0.72310   1.000
    C210    C    0.76257   0.66800   0.06108   1.000
    C211    C    0.84276   0.57516   0.20385   1.000
    C212    C    0.81256   0.52970   0.29035   1.000
    C213    C    0.72924   0.50997   0.34787   1.000
    C214    C    0.67808   0.64250   0.12291   1.000
    C215    C    0.78960   0.59989   0.17472   1.000
    C216    C    0.81724   0.64643   0.08640   1.000
    C217    C    0.70455   0.57581   0.23715   1.000
    C218    C    0.64904   0.59702   0.20928   1.000
    C219    C    0.93258   0.09927   0.45670   1.000
    C220    C    0.88745   0.14779   0.43138   1.000
    C221    C    0.93103   0.23742   0.38871   1.000
    C222    C    0.12149   0.07581   0.34063   1.000
    C223    C    0.18774   0.11951   0.24750   1.000
    C224    C    0.18684   0.07546   0.20161   1.000
    C225    C    0.09364   0.27476   0.66650   1.000
    C226    C    0.26590   0.22186   0.57653   1.000
    C227    C    0.28084   0.17916   0.53244   1.000
    C228    C    0.21726   0.14061   0.51311   1.000
    C229    C    0.03446   0.23722   0.64178   1.000
    C230    C    0.18828   0.22704   0.60037   1.000
    C231    C    0.16972   0.27045   0.64552   1.000
    C232    C    0.12719   0.18762   0.57695   1.000
    C233    C    0.05059   0.19473   0.59760   1.000
    C234    C    0.43274   0.54351   0.90075   1.000
    C235    C    0.38769   0.56878   0.85218   1.000
    C236    C    0.43147   0.61152   0.76250   1.000
    C237    C    0.62141   0.65917   0.92426   1.000
    C238    C    0.68756   0.75211   0.88071   1.000
    C239    C    0.68652   0.79781   0.92500   1.000
    C240    C    0.59393   0.33352   0.72518   1.000
    C241    C    0.76624   0.42348   0.77758   1.000
    C242    C    0.78120   0.46764   0.82017   1.000
    C243    C    0.71757   0.48702   0.85880   1.000
    C244    C    0.53474   0.35837   0.76276   1.000
    C245    C    0.68856   0.39962   0.77266   1.000
    C246    C    0.67002   0.35443   0.72933   1.000
    C247    C    0.62745   0.42314   0.81210   1.000
    C248    C    0.55083   0.40255   0.80521   1.000
    C249    C    0.33340   0.90058   0.55550   1.000
    C250    C    0.23969   0.85217   0.57873   1.000
    C251    C    0.19334   0.76258   0.62602   1.000
    C252    C    0.54604   0.92463   0.41543   1.000
    C253    C    0.56889   0.88068   0.36615   1.000
    C254    C    0.61249   0.92429   0.27647   1.000
    C255    C    0.32288   0.72944   0.93870   1.000
    C256    C    0.54618   0.77911   0.79518   1.000
    C257    C    0.60279   0.82050   0.70860   1.000
    C258    C    0.57720   0.85875   0.65139   1.000
    C259    C    0.30062   0.76655   0.87708   1.000
    C260    C    0.46381   0.77485   0.82466   1.000
    C261    C    0.40284   0.73280   0.91301   1.000
    C262    C    0.44154   0.81390   0.76249   1.000
    C263    C    0.35822   0.80771   0.79064   1.000
    C264    C    0.88885   0.55585   0.54428   1.000
    C265    C    0.81837   0.57927   0.56958   1.000
    C266    C    0.81907   0.62647   0.61239   1.000
    C267    C    0.96163   0.41615   0.65906   1.000
    C268    C    0.93458   0.36672   0.75190   1.000
    C269    C    0.88714   0.27714   0.79736   1.000
    C270    C    0.26207   0.93875   0.33220   1.000
    C271    C    0.34235   0.79585   0.42480   1.000
    C272    C    0.31229   0.70937   0.47005   1.000
    C273    C    0.22910   0.65196   0.48967   1.000
    C274    C    0.17776   0.87702   0.35745   1.000
    C275    C    0.28919   0.82506   0.40010   1.000
    C276    C    0.31668   0.91331   0.35381   1.000
    C277    C    0.20430   0.76273   0.42400   1.000
    C278    C    0.14882   0.79067   0.40281   1.000
    C279    C    0.16667   0.55552   0.90046   1.000
    C280    C    0.26046   0.57871   0.85207   1.000
    C281    C    0.30698   0.62602   0.76243   1.000
    C282    C    0.95405   0.41572   0.92453   1.000
    C283    C    0.93123   0.36647   0.88063   1.000
    C284    C    0.88762   0.27684   0.92433   1.000
    C285    C    0.17719   0.93859   0.72928   1.000
    C286    C    0.95407   0.79543   0.77891   1.000
    C287    C    0.89742   0.70892   0.82042   1.000
    C288    C    0.92292   0.65164   0.85880   1.000
    C289    C    0.19935   0.87692   0.76655   1.000
    C290    C    0.03632   0.82477   0.77470   1.000
    C291    C    0.09733   0.91304   0.73256   1.000
    C292    C    0.05853   0.76254   0.81390   1.000
    C293    C    0.14172   0.79055   0.80785   1.000
    C294    C    0.61102   0.54429   0.55568   1.000
    C295    C    0.68135   0.56963   0.57913   1.000
    C296    C    0.68030   0.61242   0.62635   1.000
    C297    C    0.53834   0.65902   0.41598   1.000
    C298    C    0.56546   0.75194   0.36640   1.000
    C299    C    0.61285   0.79720   0.27685   1.000
    C300    C    0.23741   0.33200   0.93893   1.000
    C301    C    0.15722   0.42483   0.79615   1.000
    C302    C    0.18741   0.47030   0.70965   1.000
    C303    C    0.27073   0.49002   0.65214   1.000
    C304    C    0.32190   0.35750   0.87700   1.000
    C305    C    0.21037   0.40010   0.82528   1.000
    C306    C    0.18274   0.35357   0.91356   1.000
    C307    C    0.29542   0.42418   0.76285   1.000
    C308    C    0.35094   0.40298   0.79072   1.000
    C309    C    0.06739   0.90072   0.54330   1.000
    C310    C    0.11252   0.85220   0.56863   1.000
    C311    C    0.06895   0.76257   0.61100   1.000
    C312    C    0.87849   0.92419   0.65937   1.000
    C313    C    0.81223   0.88049   0.75242   1.000
    C314    C    0.81313   0.92454   0.79839   1.000
    C315    C    0.90633   0.72524   0.33351   1.000
    C316    C    0.73408   0.77814   0.42347   1.000
    C317    C    0.71914   0.82083   0.46757   1.000
    C318    C    0.78272   0.85938   0.48600   1.000
    C319    C    0.96551   0.76278   0.35822   1.000
    C320    C    0.81169   0.77295   0.39963   1.000
    C321    C    0.83026   0.72954   0.35448   1.000
    C322    C    0.87279   0.81238   0.42305   1.000
    C323    C    0.94939   0.80527   0.40240   1.000
    C324    C    0.69807   0.44830   0.10300   1.000
    C325    C    0.60841   0.35901   0.28199   1.000
    C326    C    0.80177   0.10376   0.44843   1.000
    C327    C    0.89112   0.28185   0.35908   1.000
    C328    C    0.25004   0.44766   0.44777   1.000
    C329    C    0.25038   0.35825   0.35831   1.000
    C330    C    0.30191   0.55170   0.89621   1.000
    C331    C    0.39157   0.64098   0.71801   1.000
    C332    C    0.19821   0.89624   0.55158   1.000
    C333    C    0.10886   0.71815   0.64093   1.000
    C334    C    0.74994   0.55233   0.55223   1.000
    C335    C    0.74960   0.64175   0.64169   1.000
    C336    C    0.25002   0.20582   0.20567   1.000
    C337    C    0.25020   0.11657   0.11591   1.000
    C338    C    0.45516   0.20558   0.58951   1.000
    C339    C    0.36479   0.11724   0.76779   1.000
    C340    C    0.04474   0.58924   0.20564   1.000
    C341    C    0.13512   0.76743   0.11708   1.000
    C342    C    0.74995   0.79418   0.79433   1.000
    C343    C    0.74978   0.88342   0.88409   1.000
    C344    C    0.54481   0.79441   0.41050   1.000
    C345    C    0.63519   0.88276   0.23222   1.000
    C346    C    0.95524   0.41076   0.79436   1.000
    C347    C    0.86485   0.23257   0.88292   1.000
    C348    C    0.35677   0.53422   0.14410   1.000
    C349    C    0.49987   0.14357   0.32374   1.000
    C350    C    0.82337   0.32342   0.53233   1.000
    C351    C    0.00007   0.32361   0.14345   1.000
    C352    C    0.67676   0.53206   0.32330   1.000
    C353    C    0.14296   0.14381   0.53432   1.000
    C354    C    0.64321   0.46577   0.85590   1.000
    C355    C    0.50011   0.85643   0.67627   1.000
    C356    C    0.17661   0.67658   0.46767   1.000
    C357    C    0.99991   0.67639   0.85650   1.000
    C358    C    0.32321   0.46793   0.67668   1.000
    C359    C    0.85702   0.85618   0.46568   1.000
    C360    C    0.50483   0.46849   0.13550   1.000
    C361    C    0.36136   0.38198   0.11323   1.000
    C362    C    0.59401   0.46283   0.02559   1.000
    C363    C    0.44641   0.36974   0.00000   1.000
    C364    C    0.64041   0.13553   0.39646   1.000
    C365    C    0.47421   0.11242   0.50625   1.000
    C366    C    0.61960   0.02610   0.51153   1.000
    C367    C    0.45201   0.00000   0.62525   1.000
    C368    C    0.03705   0.39643   0.46696   1.000
    C369    C    0.98014   0.50565   0.38142   1.000
    C370    C    0.13111   0.51106   0.46280   1.000
    C371    C    0.07691   0.62429   0.37052   1.000
    C372    C    0.85949   0.39647   0.13565   1.000
    C373    C    0.02549   0.50592   0.11262   1.000
    C374    C    0.88031   0.51153   0.02619   1.000
    C375    C    0.04775   0.62497   0.00000   1.000
    C376    C    0.46313   0.46690   0.39660   1.000
    C377    C    0.51995   0.38134   0.50579   1.000
    C378    C    0.36880   0.46296   0.51117   1.000
    C379    C    0.42292   0.37062   0.62439   1.000
    C380    C    0.99485   0.13552   0.46874   1.000
    C381    C    0.13850   0.11315   0.38190   1.000
    C382    C    0.90609   0.02570   0.46291   1.000
    C383    C    0.05381   0.00000   0.36952   1.000
    C384    C    0.49515   0.53150   0.86445   1.000
    C385    C    0.63862   0.61802   0.88677   1.000
    C386    C    0.40598   0.53717   0.97441   1.000
    C387    C    0.55357   0.63026   0.99417   1.000
    C388    C    0.35957   0.86447   0.60355   1.000
    C389    C    0.52576   0.88758   0.49376   1.000
    C390    C    0.38037   0.97390   0.48848   1.000
    C391    C    0.54797   0.99435   0.37476   1.000
    C392    C    0.96293   0.60357   0.53304   1.000
    C393    C    0.01985   0.49435   0.61858   1.000
    C394    C    0.86887   0.48894   0.53700   1.000
    C395    C    0.92307   0.37571   0.62948   1.000
    C396    C    0.14049   0.60353   0.86436   1.000
    C397    C    0.97449   0.49408   0.88739   1.000
    C398    C    0.11967   0.48847   0.97380   1.000
    C399    C    0.95224   0.37503   0.99416   1.000
    C400    C    0.53685   0.53309   0.60340   1.000
    C401    C    0.48002   0.61865   0.49422   1.000
    C402    C    0.63117   0.53703   0.48884   1.000
    C403    C    0.57705   0.62937   0.37562   1.000
    C404    C    0.00000   0.86447   0.53126   1.000
    C405    C    0.86148   0.88685   0.61810   1.000
    C406    C    0.09389   0.97430   0.53709   1.000
    C407    C    0.94617   0.99411   0.63048   1.000
    O408    O    0.41249   0.35528   0.03787   1.000
    O409    O    0.50095   0.43031   0.96522   1.000
    O410    O    0.04684   0.60463   0.03773   1.000
    O411    O    0.03084   0.60153   0.96540   1.000
    O412    O    0.29934   0.71320   0.97260   1.000
    O413    O    0.22695   0.31424   0.97280   1.000
    O414    O    0.33880   0.21842   0.04174   1.000
    O415    O    0.12020   0.74015   0.04251   1.000
    O416    O    0.58063   0.45966   0.06242   1.000
    O417    O    0.57475   0.47686   0.97802   1.000
    O418    O    0.85681   0.47801   0.06286   1.000
    O419    O    0.94712   0.54481   0.97850   1.000
    O420    O    0.71560   0.46578   0.06864   1.000
    O421    O    0.84935   0.65465   0.06314   1.000
    O422    O    0.58846   0.28255   0.06382   1.000
    O423    O    0.78990   0.65721   0.07374   1.000
    O424    O    0.72032   0.65525   0.09199   1.000
    O425    O    0.77302   0.68576   0.02720   1.000
    O426    O    0.63712   0.26888   0.07415   1.000
    O427    O    0.68823   0.25200   0.09211   1.000
    O428    O    0.70064   0.28680   0.02740   1.000
    O429    O    0.00577   0.46392   0.09091   1.000
    O430    O    0.92277   0.40920   0.10242   1.000
    O431    O    0.99306   0.37277   0.10632   1.000
    O432    O    0.05286   0.45519   0.02150   1.000
    O433    O    0.96914   0.39848   0.03168   1.000
    O434    O    0.40293   0.44554   0.09139   1.000
    O435    O    0.47466   0.48880   0.10252   1.000
    O436    O    0.40063   0.52167   0.10682   1.000
    O437    O    0.42524   0.52314   0.02198   1.000
    O438    O    0.49903   0.56968   0.03186   1.000
    O439    O    0.28183   0.15938   0.09543   1.000
    O440    O    0.31294   0.22504   0.09712   1.000
    O441    O    0.03571   0.54510   0.09404   1.000
    O442    O    0.05734   0.60891   0.09742   1.000
    O443    O    0.12374   0.74530   0.09637   1.000
    O444    O    0.09056   0.67835   0.09752   1.000
    O445    O    0.36996   0.36140   0.09448   1.000
    O446    O    0.34550   0.29436   0.09751   1.000
    O447    O    0.25022   0.09913   0.09835   1.000
    O448    O    0.15284   0.80228   0.09975   1.000
    O449    O    0.80342   0.62316   0.13056   1.000
    O450    O    0.56665   0.24617   0.13117   1.000
    O451    O    0.53604   0.46249   0.11737   1.000
    O452    O    0.58977   0.44385   0.12353   1.000
    O453    O    0.84640   0.42048   0.11759   1.000
    O454    O    0.78641   0.43288   0.12374   1.000
    O455    O    0.73166   0.23635   0.11208   1.000
    O456    O    0.65645   0.65007   0.11218   1.000
    O457    O    0.65518   0.43976   0.12541   1.000
    O458    O    0.71879   0.43479   0.12547   1.000
    O459    O    0.27839   0.49676   0.12288   1.000
    O460    O    0.09897   0.38273   0.12342   1.000
    O461    O    0.21852   0.09602   0.15876   1.000
    O462    O    0.12398   0.74515   0.15986   1.000
    O463    O    0.28122   0.22685   0.16248   1.000
    O464    O    0.05674   0.61139   0.16250   1.000
    O465    O    0.66356   0.61976   0.16609   1.000
    O466    O    0.67056   0.21286   0.16614   1.000
    O467    O    0.31959   0.52360   0.14262   1.000
    O468    O    0.25060   0.52266   0.16048   1.000
    O469    O    0.03857   0.33598   0.14233   1.000
    O470    O    0.08981   0.31972   0.16039   1.000
    O471    O    0.97076   0.28054   0.16477   1.000
    O472    O    0.36465   0.55554   0.16597   1.000
    O473    O    0.59040   0.40985   0.19266   1.000
    O474    O    0.71626   0.39763   0.19275   1.000
    O475    O    0.87498   0.58390   0.18044   1.000
    O476    O    0.44510   0.23582   0.18153   1.000
    O477    O    0.65289   0.90005   0.19711   1.000
    O478    O    0.84938   0.23332   0.17899   1.000
    O479    O    0.47109   0.58657   0.18146   1.000
    O480    O    0.81618   0.58753   0.18928   1.000
    O481    O    0.74708   0.58785   0.20593   1.000
    O482    O    0.18917   0.52281   0.17732   1.000
    O483    O    0.13453   0.30332   0.17736   1.000
    O484    O    0.49498   0.22302   0.19009   1.000
    O485    O    0.54730   0.20562   0.20643   1.000
    O486    O    0.07423   0.24782   0.20029   1.000
    O487    O    0.22626   0.55443   0.20112   1.000
    O488    O    0.89986   0.22346   0.18912   1.000
    O489    O    0.95255   0.20635   0.20567   1.000
    O490    O    0.41084   0.58715   0.19127   1.000
    O491    O    0.34197   0.58862   0.20757   1.000
    O492    O    0.82944   0.16627   0.21280   1.000
    O493    O    0.45719   0.61954   0.21597   1.000
    O494    O    0.16155   0.04227   0.21775   1.000
    O495    O    0.18729   0.09748   0.22455   1.000
    O496    O    0.12216   0.73974   0.21896   1.000
    O497    O    0.08912   0.67807   0.22533   1.000
    O498    O    0.82766   0.55243   0.24710   1.000
    O499    O    0.42549   0.20019   0.24812   1.000
    O500    O    0.02710   0.55447   0.22293   1.000
    O501    O    0.05507   0.61126   0.22683   1.000
    O502    O    0.24999   0.22324   0.22317   1.000
    O503    O    0.21888   0.16266   0.22658   1.000
    O504    O    0.67680   0.58641   0.22321   1.000
    O505    O    0.61606   0.58587   0.23318   1.000
    O506    O    0.60010   0.18919   0.22343   1.000
    O507    O    0.65067   0.17918   0.23320   1.000
    O508    O    0.00478   0.18990   0.22312   1.000
    O509    O    0.05456   0.18124   0.23604   1.000
    O510    O    0.27258   0.58844   0.22486   1.000
    O511    O    0.21020   0.58503   0.23755   1.000
    O512    O    0.93315   0.13109   0.24634   1.000
    O513    O    0.32069   0.62297   0.24898   1.000
    O514    O    0.62384   0.90352   0.25434   1.000
    O515    O    0.62402   0.83998   0.25453   1.000
    O516    O    0.76835   0.11230   0.23633   1.000
    O517    O    0.81171   0.09225   0.25208   1.000
    O518    O    0.69066   0.55394   0.28022   1.000
    O519    O    0.49439   0.64895   0.24050   1.000
    O520    O    0.43564   0.65405   0.25603   1.000
    O521    O    0.53573   0.38325   0.25451   1.000
    O522    O    0.58846   0.37375   0.25974   1.000
    O523    O    0.52915   0.16483   0.28062   1.000
    O524    O    0.70865   0.36217   0.25462   1.000
    O525    O    0.65070   0.36649   0.25978   1.000
    O526    O    0.62036   0.95745   0.25945   1.000
    O527    O    0.62215   0.78083   0.25998   1.000
    O528    O    0.15462   0.09766   0.29406   1.000
    O529    O    0.05188   0.60857   0.29448   1.000
    O530    O    0.86272   0.07418   0.26908   1.000
    O531    O    0.91129   0.06375   0.28285   1.000
    O532    O    0.36800   0.65602   0.27274   1.000
    O533    O    0.30599   0.65352   0.28619   1.000
    O534    O    0.79924   0.02753   0.28686   1.000
    O535    O    0.41320   0.68369   0.29156   1.000
    O536    O    0.59069   0.90248   0.32131   1.000
    O537    O    0.58915   0.77457   0.32162   1.000
    O538    O    0.59085   0.34155   0.31679   1.000
    O539    O    0.83238   0.51979   0.30251   1.000
    O540    O    0.77090   0.51984   0.31911   1.000
    O541    O    0.36517   0.17726   0.30371   1.000
    O542    O    0.40998   0.16037   0.32001   1.000
    O543    O    0.27247   0.97263   0.31452   1.000
    O544    O    0.91350   0.70847   0.31625   1.000
    O545    O    0.70300   0.52102   0.33558   1.000
    O546    O    0.62045   0.51999   0.37270   1.000
    O547    O    0.25046   0.34077   0.34080   1.000
    O548    O    0.46132   0.14241   0.33618   1.000
    O549    O    0.50689   0.10641   0.37285   1.000
    O550    O    0.90860   0.31667   0.34161   1.000
    O551    O    0.28938   0.92603   0.34300   1.000
    O552    O    0.21991   0.90788   0.34482   1.000
    O553    O    0.86830   0.72739   0.34399   1.000
    O554    O    0.93592   0.74401   0.34586   1.000
    O555    O    0.34872   0.93655   0.34569   1.000
    O556    O    0.80629   0.71404   0.34654   1.000
    O557    O    0.08765   0.03790   0.35507   1.000
    O558    O    0.13000   0.09448   0.36126   1.000
    O559    O    0.05763   0.60407   0.35573   1.000
    O560    O    0.00924   0.54475   0.36118   1.000
    O561    O    0.15616   0.88778   0.34984   1.000
    O562    O    0.99467   0.75947   0.35085   1.000
    O563    O    0.71667   0.49329   0.38227   1.000
    O564    O    0.40087   0.12349   0.38302   1.000
    O565    O    0.34716   0.38222   0.36187   1.000
    O566    O    0.79099   0.25444   0.36211   1.000
    O567    O    0.30294   0.86918   0.37695   1.000
    O568    O    0.82098   0.75125   0.37705   1.000
    O569    O    0.16329   0.83384   0.38013   1.000
    O570    O    0.95745   0.78403   0.38031   1.000
    O571    O    0.28503   0.37291   0.36598   1.000
    O572    O    0.21565   0.36589   0.37296   1.000
    O573    O    0.84888   0.25963   0.36653   1.000
    O574    O    0.91107   0.25963   0.37389   1.000
    O575    O    0.55685   0.83755   0.38832   1.000
    O576    O    0.55746   0.90266   0.39079   1.000
    O577    O    0.55513   0.77318   0.38845   1.000
    O578    O    0.55190   0.70548   0.39119   1.000
    O579    O    0.99924   0.96526   0.43016   1.000
    O580    O    0.07048   0.60111   0.43123   1.000
    O581    O    0.31915   0.40897   0.39726   1.000
    O582    O    0.78346   0.19262   0.39763   1.000
    O583    O    0.54700   0.95949   0.39509   1.000
    O584    O    0.53095   0.03180   0.39836   1.000
    O585    O    0.55770   0.64420   0.39580   1.000
    O586    O    0.57060   0.56864   0.39886   1.000
    O587    O    0.15350   0.36177   0.38223   1.000
    O588    O    0.96376   0.25445   0.38350   1.000
    O589    O    0.95804   0.46386   0.44473   1.000
    O590    O    0.09690   0.09131   0.44554   1.000
    O591    O    0.18126   0.39713   0.40901   1.000
    O592    O    0.90924   0.19261   0.41004   1.000
    O593    O    0.57717   0.10239   0.40921   1.000
    O594    O    0.65349   0.11747   0.42045   1.000
    O595    O    0.51363   0.48741   0.40935   1.000
    O596    O    0.42604   0.46130   0.42046   1.000
    O597    O    0.84224   0.79266   0.41134   1.000
    O598    O    0.77289   0.77554   0.41155   1.000
    O599    O    0.24674   0.79389   0.41205   1.000
    O600    O    0.31577   0.81045   0.41245   1.000
    O601    O    0.91109   0.80882   0.41272   1.000
    O602    O    0.97131   0.81852   0.41325   1.000
    O603    O    0.17656   0.77670   0.41340   1.000
    O604    O    0.11590   0.76680   0.41388   1.000
    O605    O    0.71054   0.76305   0.41498   1.000
    O606    O    0.37452   0.81921   0.41613   1.000
    O607    O    0.52718   0.77716   0.44528   1.000
    O608    O    0.53590   0.90611   0.45459   1.000
    O609    O    0.50918   0.63884   0.45510   1.000
    O610    O    0.35379   0.44303   0.43260   1.000
    O611    O    0.28434   0.43901   0.43432   1.000
    O612    O    0.71343   0.12362   0.43286   1.000
    O613    O    0.78103   0.12579   0.43485   1.000
    O614    O    0.44715   0.02157   0.45522   1.000
    O615    O    0.49407   0.09083   0.46410   1.000
    O616    O    0.59766   0.52247   0.45547   1.000
    O617    O    0.54205   0.44463   0.46395   1.000
    O618    O    0.86490   0.83428   0.44436   1.000
    O619    O    0.72661   0.79949   0.44552   1.000
    O620    O    0.19045   0.71965   0.44583   1.000
    O621    O    0.32732   0.75261   0.44742   1.000
    O622    O    0.21583   0.43420   0.43909   1.000
    O623    O    0.14637   0.43244   0.44307   1.000
    O624    O    0.84461   0.12577   0.43990   1.000
    O625    O    0.91002   0.12353   0.44404   1.000
    O626    O    0.37888   0.45933   0.47775   1.000
    O627    O    0.64309   0.06276   0.47799   1.000
    O628    O    0.24998   0.46510   0.46518   1.000
    O629    O    0.78431   0.06902   0.46589   1.000
    O630    O    0.12112   0.47761   0.45926   1.000
    O631    O    0.07409   0.42029   0.46134   1.000
    O632    O    0.91934   0.06249   0.45980   1.000
    O633    O    0.96372   0.11739   0.46272   1.000
    O634    O    0.09758   0.54450   0.47737   1.000
    O635    O    0.92538   0.97811   0.47686   1.000
    O636    O    0.81987   0.85778   0.47584   1.000
    O637    O    0.90085   0.89335   0.47824   1.000
    O638    O    0.98649   0.40925   0.48750   1.000
    O639    O    0.75093   0.84011   0.47678   1.000
    O640    O    0.68955   0.82345   0.47709   1.000
    O641    O    0.20285   0.66427   0.47867   1.000
    O642    O    0.12032   0.62725   0.47981   1.000
    O643    O    0.02508   0.10250   0.48896   1.000
    O644    O    0.27069   0.68066   0.47986   1.000
    O645    O    0.33212   0.69718   0.47990   1.000
    O646    O    0.78341   0.38243   0.49370   1.000
    O647    O    0.22128   0.12232   0.49690   1.000
    O648    O    0.77870   0.87768   0.50264   1.000
    O649    O    0.35689   0.93724   0.52199   1.000
    O650    O    0.62110   0.54066   0.52226   1.000
    O651    O    0.21657   0.61758   0.50629   1.000
    O652    O    0.97234   0.89750   0.51103   1.000
    O653    O    0.90308   0.90868   0.55445   1.000
    O654    O    0.01349   0.59075   0.51249   1.000
    O655    O    0.04194   0.53614   0.55526   1.000
    O656    O    0.50591   0.90917   0.53590   1.000
    O657    O    0.45793   0.55537   0.53606   1.000
    O658    O    0.49079   0.36116   0.54490   1.000
    O659    O    0.46408   0.09389   0.54541   1.000
    O660    O    0.87966   0.37275   0.52019   1.000
    O661    O    0.90240   0.45550   0.52252   1.000
    O662    O    0.92950   0.39889   0.56876   1.000
    O663    O    0.09913   0.10664   0.52175   1.000
    O664    O    0.07460   0.02189   0.52314   1.000
    O665    O    0.00074   0.03179   0.56983   1.000
    O666    O    0.66786   0.30282   0.52007   1.000
    O667    O    0.72929   0.31934   0.52011   1.000
    O668    O    0.79713   0.33573   0.52133   1.000
    O669    O    0.40232   0.47752   0.54453   1.000
    O670    O    0.55283   0.97842   0.54479   1.000
    O671    O    0.24905   0.15989   0.52277   1.000
    O672    O    0.18011   0.14221   0.52371   1.000
    O673    O    0.31042   0.17655   0.52291   1.000
    O674    O    0.21567   0.93098   0.53411   1.000
    O675    O    0.75000   0.53489   0.53478   1.000
    O676    O    0.47279   0.22284   0.55472   1.000
    O677    O    0.67266   0.24739   0.55255   1.000
    O678    O    0.03370   0.88260   0.53728   1.000
    O679    O    0.80952   0.28035   0.55415   1.000
    O680    O    0.27337   0.20051   0.55448   1.000
    O681    O    0.92589   0.57971   0.53866   1.000
    O682    O    0.13507   0.16572   0.55563   1.000
    O683    O    0.87886   0.52239   0.54064   1.000
    O684    O    0.08064   0.93751   0.54019   1.000
    O685    O    0.08996   0.87646   0.55596   1.000
    O686    O    0.85361   0.56756   0.55693   1.000
    O687    O    0.15537   0.87422   0.56010   1.000
    O688    O    0.21895   0.87420   0.56515   1.000
    O689    O    0.78415   0.56580   0.56090   1.000
    O690    O    0.71564   0.56098   0.56568   1.000
    O691    O    0.28655   0.87637   0.56711   1.000
    O692    O    0.34648   0.88253   0.57952   1.000
    O693    O    0.64618   0.55696   0.56740   1.000
    O694    O    0.57393   0.53869   0.57954   1.000
    O695    O    0.09074   0.80739   0.58981   1.000
    O696    O    0.81872   0.60287   0.59098   1.000
    O697    O    0.88408   0.23320   0.58611   1.000
    O698    O    0.62546   0.18079   0.58387   1.000
    O699    O    0.68421   0.18955   0.58752   1.000
    O700    O    0.02867   0.18148   0.58675   1.000
    O701    O    0.82342   0.22330   0.58658   1.000
    O702    O    0.75323   0.20611   0.58790   1.000
    O703    O    0.28943   0.23694   0.58501   1.000
    O704    O    0.22709   0.22445   0.58845   1.000
    O705    O    0.08889   0.19117   0.58727   1.000
    O706    O    0.15773   0.20733   0.58866   1.000
    O707    O    0.48634   0.51259   0.59065   1.000
    O708    O    0.42938   0.43135   0.60114   1.000
    O709    O    0.37952   0.48001   0.62729   1.000
    O710    O    0.42281   0.89761   0.59080   1.000
    O711    O    0.46903   0.96538   0.60165   1.000
    O712    O    0.49308   0.89359   0.62716   1.000
    O713    O    0.21651   0.80737   0.60237   1.000
    O714    O    0.68082   0.59103   0.60274   1.000
    O715    O    0.59911   0.87651   0.61698   1.000
    O716    O    0.28330   0.50671   0.61774   1.000
    O717    O    0.44227   0.35580   0.60420   1.000
    O718    O    0.44807   0.29451   0.60876   1.000
    O719    O    0.45297   0.03768   0.60491   1.000
    O720    O    0.44251   0.09734   0.60922   1.000
    O721    O    0.44484   0.22682   0.61150   1.000
    O722    O    0.44313   0.16245   0.61168   1.000
    O723    O    0.83669   0.16616   0.61987   1.000
    O724    O    0.04253   0.21597   0.61969   1.000
    O725    O    0.69704   0.13082   0.62301   1.000
    O726    O    0.17900   0.24875   0.62294   1.000
    O727    O    0.03622   0.74554   0.61635   1.000
    O728    O    0.08891   0.74036   0.62596   1.000
    O729    O    0.84648   0.63822   0.61776   1.000
    O730    O    0.78433   0.63411   0.62704   1.000
    O731    O    0.86998   0.90552   0.63873   1.000
    O732    O    0.99074   0.45525   0.63882   1.000
    O733    O    0.15110   0.74036   0.63347   1.000
    O734    O    0.20899   0.74556   0.63789   1.000
    O735    O    0.71495   0.62708   0.63402   1.000
    O736    O    0.65282   0.61777   0.63808   1.000
    O737    O    0.94235   0.39593   0.64427   1.000
    O738    O    0.91233   0.95915   0.64492   1.000
    O739    O    0.41082   0.22543   0.67830   1.000
    O740    O    0.40929   0.09751   0.67870   1.000
    O741    O    0.09138   0.68332   0.65839   1.000
    O742    O    0.74952   0.65922   0.65919   1.000
    O743    O    0.00530   0.24053   0.64914   1.000
    O744    O    0.06405   0.25599   0.65414   1.000
    O745    O    0.84382   0.11222   0.65016   1.000
    O746    O    0.78007   0.09211   0.65517   1.000
    O747    O    0.19369   0.28596   0.65342   1.000
    O748    O    0.13168   0.27260   0.65601   1.000
    O749    O    0.65126   0.06345   0.65431   1.000
    O750    O    0.71060   0.07397   0.65699   1.000
    O751    O    0.40912   0.65845   0.68317   1.000
    O752    O    0.53866   0.85759   0.66383   1.000
    O753    O    0.59000   0.83962   0.67999   1.000
    O754    O    0.29697   0.47898   0.66441   1.000
    O755    O    0.22907   0.48016   0.68089   1.000
    O756    O    0.94810   0.39144   0.70548   1.000
    O757    O    0.84536   0.90234   0.70589   1.000
    O758    O    0.08648   0.29153   0.68370   1.000
    O759    O    0.72750   0.02737   0.68548   1.000
    O760    O    0.47082   0.83516   0.71938   1.000
    O761    O    0.30932   0.44606   0.71976   1.000
    O762    O    0.63481   0.82274   0.69630   1.000
    O763    O    0.16760   0.48020   0.69749   1.000
    O764    O    0.58678   0.31631   0.70844   1.000
    O765    O    0.20074   0.97247   0.71299   1.000
    O766    O    0.69399   0.34647   0.71381   1.000
    O767    O    0.08869   0.93624   0.71714   1.000
    O768    O    0.57448   0.79980   0.75189   1.000
    O769    O    0.17231   0.44757   0.75290   1.000
    O770    O    0.34927   0.63350   0.74022   1.000
    O771    O    0.41152   0.62625   0.74025   1.000
    O772    O    0.37783   0.21917   0.74000   1.000
    O773    O    0.37596   0.16002   0.74544   1.000
    O774    O    0.37961   0.04255   0.74052   1.000
    O775    O    0.37614   0.09647   0.74566   1.000
    O776    O    0.63197   0.34398   0.72725   1.000
    O777    O    0.56434   0.34595   0.74397   1.000
    O778    O    0.29133   0.63783   0.74536   1.000
    O779    O    0.46425   0.61675   0.74549   1.000
    O780    O    0.13726   0.92582   0.73092   1.000
    O781    O    0.18827   0.90775   0.74791   1.000
    O782    O    0.67929   0.37702   0.75099   1.000
    O783    O    0.06683   0.86890   0.75363   1.000
    O784    O    0.38392   0.41413   0.76681   1.000
    O785    O    0.34931   0.82081   0.76680   1.000
    O786    O    0.78978   0.41497   0.76245   1.000
    O787    O    0.94541   0.81875   0.76392   1.000
    O788    O    0.94491   0.38875   0.77313   1.000
    O789    O    0.91086   0.32193   0.77463   1.000
    O790    O    0.78109   0.83733   0.77337   1.000
    O791    O    0.81268   0.90251   0.77540   1.000
    O792    O    0.50559   0.35105   0.75949   1.000
    O793    O    0.74998   0.77676   0.77682   1.000
    O794    O    0.97288   0.44553   0.77706   1.000
    O795    O    0.23163   0.88770   0.76367   1.000
    O796    O    0.28372   0.60237   0.80725   1.000
    O797    O    0.39988   0.81081   0.77656   1.000
    O798    O    0.45267   0.79438   0.79357   1.000
    O799    O    0.40958   0.59015   0.80734   1.000
    O800    O    0.54279   0.38046   0.78398   1.000
    O801    O    0.32318   0.41358   0.77678   1.000
    O802    O    0.25290   0.41214   0.79406   1.000
    O803    O    0.87782   0.26027   0.78103   1.000
    O804    O    0.83843   0.95772   0.78222   1.000
    O805    O    0.17054   0.83373   0.78720   1.000
    O806    O    0.34709   0.09995   0.80264   1.000
    O807    O    0.72740   0.41155   0.77512   1.000
    O808    O    0.65801   0.41138   0.79238   1.000
    O809    O    0.99520   0.81010   0.77680   1.000
    O810    O    0.04743   0.79365   0.79430   1.000
    O811    O    0.77372   0.44556   0.79887   1.000
    O812    O    0.92575   0.75217   0.79966   1.000
    O813    O    0.32942   0.78713   0.83386   1.000
    O814    O    0.33642   0.38024   0.83386   1.000
    O815    O    0.71876   0.77315   0.83752   1.000
    O816    O    0.94324   0.38862   0.83749   1.000
    O817    O    0.50499   0.77698   0.80992   1.000
    O818    O    0.55488   0.76418   0.81848   1.000
    O819    O    0.18380   0.41247   0.81071   1.000
    O820    O    0.12500   0.41610   0.81956   1.000
    O821    O    0.87600   0.25485   0.84014   1.000
    O822    O    0.78145   0.90398   0.84124   1.000
    O823    O    0.58914   0.41285   0.80865   1.000
    O824    O    0.52889   0.41343   0.81849   1.000
    O825    O    0.10012   0.77654   0.81087   1.000
    O826    O    0.15060   0.76668   0.82100   1.000
    O827    O    0.63533   0.44446   0.83400   1.000
    O828    O    0.02922   0.71946   0.83520   1.000
    O829    O    0.81081   0.47719   0.82268   1.000
    O830    O    0.74938   0.47733   0.83948   1.000
    O831    O    0.86545   0.69668   0.82263   1.000
    O832    O    0.91017   0.68028   0.83961   1.000
    O833    O    0.43333   0.75383   0.86883   1.000
    O834    O    0.19656   0.37684   0.86942   1.000
    O835    O    0.28119   0.56521   0.87414   1.000
    O836    O    0.21356   0.56712   0.87626   1.000
    O837    O    0.34480   0.56024   0.87419   1.000
    O838    O    0.41021   0.55615   0.87646   1.000
    O839    O    0.68039   0.47640   0.85735   1.000
    O840    O    0.59935   0.47833   0.89317   1.000
    O841    O    0.96141   0.66402   0.85765   1.000
    O842    O    0.00692   0.62723   0.89365   1.000
    O843    O    0.72159   0.50324   0.87708   1.000
    O844    O    0.90101   0.61726   0.87659   1.000
    O845    O    0.15358   0.57952   0.88241   1.000
    O846    O    0.07721   0.59080   0.89758   1.000
    O847    O    0.46394   0.53751   0.88260   1.000
    O848    O    0.52532   0.51119   0.89745   1.000
    O849    O    0.34353   0.34992   0.88778   1.000
    O850    O    0.27965   0.34475   0.90796   1.000
    O851    O    0.26831   0.76364   0.88791   1.000
    O852    O    0.31175   0.74799   0.90789   1.000
    O853    O    0.90942   0.32165   0.90248   1.000
    O854    O    0.94264   0.39109   0.90258   1.000
    O855    O    0.65448   0.70564   0.90248   1.000
    O856    O    0.68704   0.77496   0.90285   1.000
    O857    O    0.84714   0.19773   0.90025   1.000
    O858    O    0.87624   0.25470   0.90362   1.000
    O859    O    0.74975   0.90086   0.90165   1.000
    O860    O    0.71815   0.84061   0.90454   1.000
    O861    O    0.63001   0.63860   0.90551   1.000
    O862    O    0.59705   0.55446   0.90861   1.000
    O863    O    0.96427   0.45490   0.90596   1.000
    O864    O    0.99421   0.53608   0.90910   1.000
    O865    O    0.28438   0.53422   0.93096   1.000
    O866    O    0.14317   0.52199   0.93713   1.000
    O867    O    0.41936   0.54034   0.93758   1.000
    O868    O    0.36286   0.73112   0.92585   1.000
    O869    O    0.41151   0.71744   0.93619   1.000
    O870    O    0.21007   0.34278   0.92624   1.000
    O871    O    0.15062   0.34535   0.93684   1.000
    O872    O    0.58749   0.64471   0.95921   1.000
    O873    O    0.87978   0.25985   0.95748   1.000
    O874    O    0.95315   0.39537   0.95934   1.000
    O875    O    0.66118   0.78158   0.95824   1.000
    O876    O    0.49999   0.50000   0.00000   1.000
    O877    O    0.49999   0.00000   0.50000   1.000
    O878    O    0.99999   0.50000   0.50000   1.000
    O879    O    0.99999   0.50000   0.00000   1.000
    O880    O    0.49999   0.50000   0.50000   1.000
    O881    O    0.99999   1.00000   0.50000   1.000
loop_
    _geom_bond_atom_site_label_1
    _geom_bond_atom_site_label_2
    _geom_bond_distance
    _geom_bond_site_symmetry_2
    _ccdc_geom_bond_type
    C363   O408      0.67077      .   S
    C147   O408      0.67077      .   S
    C363   O409      1.04121  1_554   S
    C6     O409      1.04121      .   S
    C375   O410      0.68400      .   S
    C192   O410      0.68400      .   S
    C375   O411      0.98794  1_554   S
    C9     O411      0.98794      .   S
    C77    O412      0.54497  1_554   S
    C255   O412      0.54497      .   S
    C104   O413      0.54504  1_554   S
    C300   O413      0.54504      .   S
    C13    O414      0.54469      .   S
    C149   O414      0.54469      .   S
    C40    O415      0.54465      .   S
    C194   O415      0.54465      .   S
    C362   O416      0.63684      .   S
    C144   O416      0.63684      .   S
    C362   O417      1.06479  1_554   S
    C6     O417      1.06479      .   S
    C374   O418      0.63678      .   S
    C189   O418      0.63678      .   S
    C374   O419      1.06441  1_554   S
    C9     O419      1.06441  1_455   S
    C120   O420      0.53735      .   S
    C324   O420      0.53735      .   S
    C55    O421      0.54497      .   S
    C216   O421      0.54497      .   S
    C28    O422      0.54513      .   S
    C171   O422      0.54513      .   S
    C210   O423      0.68843      .   S
    C216   O423      0.68843      .   S
    C210   O424      0.70719      .   S
    C214   O424      0.70719      .   S
    C210   O425      0.54513      .   S
    C50    O425      0.54513  1_556   S
    C165   O426      0.68864      .   S
    C171   O426      0.68864      .   S
    C165   O427      0.70715      .   S
    C169   O427      0.70715      .   S
    C165   O428      0.54504      .   S
    C23    O428      0.54504  1_556   S
    C3     O429      1.03806  1_655   S
    C373   O429      1.03806      .   S
    C3     O430      1.03372      .   S
    C372   O430      1.03372      .   S
    C3     O431      1.04331      .   S
    C351   O431      1.04331  1_455   S
    C3     O432      1.06446  1_655   S
    C398   O432      1.06446  1_556   S
    C3     O433      1.03964      .   S
    C399   O433      1.03964  1_556   S
    C0     O434      1.03875      .   S
    C361   O434      1.03875      .   S
    C0     O435      1.03350      .   S
    C360   O435      1.03350      .   S
    C0     O436      1.04380      .   S
    C348   O436      1.04380      .   S
    C0     O437      1.06476      .   S
    C386   O437      1.06476  1_556   S
    C0     O438      1.03959      .   S
    C387   O438      1.03959  1_556   S
    C149   O439      0.69794      .   S
    C337   O439      0.69794      .   S
    C149   O440      0.70131      .   S
    C148   O440      0.70131      .   S
    C192   O441      0.63598      .   S
    C373   O441      0.63598      .   S
    C192   O442      0.75216      .   S
    C193   O442      0.75216      .   S
    C194   O443      0.69795      .   S
    C341   O443      0.69795      .   S
    C194   O444      0.70129      .   S
    C193   O444      0.70129      .   S
    C147   O445      0.63602      .   S
    C361   O445      0.63602      .   S
    C147   O446      0.75236      .   S
    C148   O446      0.75236      .   S
    C133   O447      0.54520      .   S
    C337   O447      0.54520      .   S
    C137   O448      0.54520      .   S
    C341   O448      0.54520      .   S
    C216   O449      0.70995      .   S
    C215   O449      0.70995      .   S
    C171   O450      0.70959      .   S
    C170   O450      0.70959      .   S
    C144   O451      0.63864      .   S
    C360   O451      0.63864      .   S
    C144   O452      0.75190      .   S
    C145   O452      0.75190      .   S
    C189   O453      0.63889      .   S
    C372   O453      0.63889      .   S
    C189   O454      0.75188      .   S
    C190   O454      0.75188      .   S
    C27    O455      0.54434      .   S
    C169   O455      0.54434      .   S
    C54    O456      0.54437      .   S
    C214   O456      0.54437      .   S
    C324   O457      0.70083      .   S
    C145   O457      0.70083      .   S
    C324   O458      0.70479      .   S
    C190   O458      0.70479      .   S
    C17    O459      0.54449      .   S
    C153   O459      0.54449      .   S
    C44    O460      0.54456      .   S
    C198   O460      0.54456      .   S
    C337   O461      0.69794      .   S
    C224   O461      0.69794      .   S
    C341   O462      0.69790      .   S
    C179   O462      0.69790      .   S
    C148   O463      0.69922      .   S
    C336   O463      0.69922      .   S
    C193   O464      0.69910      .   S
    C340   O464      0.69910      .   S
    C214   O465      0.69019      .   S
    C218   O465      0.69019      .   S
    C169   O466      0.69017      .   S
    C173   O466      0.69017      .   S
    C153   O467      0.66769      .   S
    C348   O467      0.66769      .   S
    C153   O468      0.70301      .   S
    C152   O468      0.70301      .   S
    C198   O469      0.66763      .   S
    C351   O469      0.66763      .   S
    C198   O470      0.70307      .   S
    C197   O470      0.70307      .   S
    C351   O471      0.68950  1_455   S
    C202   O471      0.68950      .   S
    C348   O472      0.68958      .   S
    C157   O472      0.68958      .   S
    C145   O473      0.70144      .   S
    C146   O473      0.70144      .   S
    C190   O474      0.70138      .   S
    C191   O474      0.70138      .   S
    C51    O475      0.54418      .   S
    C211   O475      0.54418      .   S
    C24    O476      0.54432      .   S
    C166   O476      0.54432      .   S
    C141   O477      0.54910      .   S
    C345   O477      0.54910      .   S
    C47    O478      0.54421      .   S
    C203   O478      0.54421      .   S
    C20    O479      0.54393      .   S
    C158   O479      0.54393      .   S
    C215   O480      0.70614      .   S
    C211   O480      0.70614      .   S
    C215   O481      0.71718      .   S
    C217   O481      0.71718      .   S
    C16    O482      0.54480      .   S
    C152   O482      0.54480      .   S
    C43    O483      0.54480      .   S
    C197   O483      0.54480      .   S
    C170   O484      0.70623      .   S
    C166   O484      0.70623      .   S
    C170   O485      0.71718      .   S
    C172   O485      0.71718      .   S
    C197   O486      0.68925      .   S
    C196   O486      0.68925      .   S
    C152   O487      0.68912      .   S
    C151   O487      0.68912      .   S
    C202   O488      0.70677      .   S
    C203   O488      0.70677      .   S
    C202   O489      0.71724      .   S
    C200   O489      0.71724      .   S
    C157   O490      0.70637      .   S
    C158   O490      0.70637      .   S
    C157   O491      0.71711      .   S
    C155   O491      0.71711      .   S
    C203   O492      0.69019      .   S
    C199   O492      0.69019      .   S
    C158   O493      0.69097      .   S
    C154   O493      0.69097      .   S
    C224   O494      0.54470      .   S
    C58    O494      0.54470      .   S
    C224   O495      0.70070      .   S
    C223   O495      0.70070      .   S
    C179   O496      0.54464      .   S
    C31    O496      0.54464      .   S
    C179   O497      0.70131      .   S
    C178   O497      0.70131      .   S
    C211   O498      0.68914      .   S
    C212   O498      0.68914      .   S
    C166   O499      0.68920      .   S
    C167   O499      0.68920      .   S
    C340   O500      0.54400      .   S
    C136   O500      0.54400      .   S
    C340   O501      0.69903      .   S
    C178   O501      0.69903      .   S
    C336   O502      0.54399      .   S
    C132   O502      0.54399      .   S
    C336   O503      0.69933      .   S
    C223   O503      0.69933      .   S
    C218   O504      0.70676      .   S
    C217   O504      0.70676      .   S
    C218   O505      0.54421      .   S
    C56    O505      0.54421      .   S
    C173   O506      0.70675      .   S
    C172   O506      0.70675      .   S
    C173   O507      0.54425      .   S
    C29    O507      0.54425      .   S
    C196   O508      0.70592      .   S
    C200   O508      0.70592  1_655   S
    C196   O509      0.54466      .   S
    C42    O509      0.54466      .   S
    C151   O510      0.70590      .   S
    C155   O510      0.70590      .   S
    C151   O511      0.54425      .   S
    C15    O511      0.54425      .   S
    C200   O512      0.70960      .   S
    C201   O512      0.70960      .   S
    C155   O513      0.70998      .   S
    C156   O513      0.70998      .   S
    C345   O514      0.69796      .   S
    C254   O514      0.69796      .   S
    C345   O515      0.69792      .   S
    C299   O515      0.69792      .   S
    C199   O516      0.54434      .   S
    C45    O516      0.54434      .   S
    C199   O517      0.70718      .   S
    C195   O517      0.70718      .   S
    C217   O518      0.68931      .   S
    C352   O518      0.68931      .   S
    C154   O519      0.54429      .   S
    C18    O519      0.54429      .   S
    C154   O520      0.70713      .   S
    C150   O520      0.70713      .   S
    C146   O521      0.54423      .   S
    C12    O521      0.54423      .   S
    C146   O522      0.69783      .   S
    C325   O522      0.69783      .   S
    C172   O523      0.68951      .   S
    C349   O523      0.68951      .   S
    C191   O524      0.54430      .   S
    C39    O524      0.54430      .   S
    C191   O525      0.69785      .   S
    C325   O525      0.69785      .   S
    C76    O526      0.54463      .   S
    C254   O526      0.54463      .   S
    C103   O527      0.54469      .   S
    C299   O527      0.54469      .   S
    C223   O528      0.75303      .   S
    C222   O528      0.75303      .   S
    C178   O529      0.75190      .   S
    C177   O529      0.75190      .   S
    C201   O530      0.68862      .   S
    C195   O530      0.68862      .   S
    C201   O531      0.54516      .   S
    C46    O531      0.54516      .   S
    C156   O532      0.68859      .   S
    C150   O532      0.68859      .   S
    C156   O533      0.54510      .   S
    C19    O533      0.54510      .   S
    C195   O534      0.54542      .   S
    C41    O534      0.54542  1_565   S
    C150   O535      0.54493      .   S
    C14    O535      0.54493      .   S
    C254   O536      0.70136      .   S
    C253   O536      0.70136      .   S
    C299   O537      0.70061      .   S
    C298   O537      0.70061      .   S
    C325   O538      0.54433      .   S
    C121   O538      0.54433      .   S
    C212   O539      0.54483      .   S
    C52    O539      0.54483      .   S
    C212   O540      0.70302      .   S
    C213   O540      0.70302      .   S
    C167   O541      0.54482      .   S
    C25    O541      0.54482      .   S
    C167   O542      0.70307      .   S
    C168   O542      0.70307      .   S
    C86    O543      0.54514  1_545   S
    C270   O543      0.54514      .   S
    C113   O544      0.54567      .   S
    C315   O544      0.54567      .   S
    C352   O545      0.66774      .   S
    C213   O545      0.66774      .   S
    C352   O546      1.04330      .   S
    C4     O546      1.04330      .   S
    C125   O547      0.54490      .   S
    C329   O547      0.54490      .   S
    C349   O548      0.66762      .   S
    C168   O548      0.66762      .   S
    C349   O549      1.04342      .   S
    C1     O549      1.04342      .   S
    C123   O550      0.54495      .   S
    C327   O550      0.54495      .   S
    C270   O551      0.68864      .   S
    C276   O551      0.68864      .   S
    C270   O552      0.70720      .   S
    C274   O552      0.70720      .   S
    C315   O553      0.68859      .   S
    C321   O553      0.68859      .   S
    C315   O554      0.70707      .   S
    C319   O554      0.70707      .   S
    C91    O555      0.54513      .   S
    C276   O555      0.54513      .   S
    C118   O556      0.54563      .   S
    C321   O556      0.54563      .   S
    C222   O557      0.67137      .   S
    C383   O557      0.67137      .   S
    C222   O558      0.63606      .   S
    C381   O558      0.63606      .   S
    C177   O559      0.63716      .   S
    C371   O559      0.63716      .   S
    C177   O560      0.63603      .   S
    C369   O560      0.63603  1_655   S
    C90    O561      0.54436      .   S
    C274   O561      0.54436      .   S
    C117   O562      0.54439  1_455   S
    C319   O562      0.54439      .   S
    C213   O563      0.54456      .   S
    C53    O563      0.54456      .   S
    C168   O564      0.54454      .   S
    C26    O564      0.54454      .   S
    C48    O565      0.54439      .   S
    C206   O565      0.54439      .   S
    C21    O566      0.54427      .   S
    C161   O566      0.54427      .   S
    C276   O567      0.70954      .   S
    C275   O567      0.70954      .   S
    C321   O568      0.70956      .   S
    C320   O568      0.70956      .   S
    C274   O569      0.69024      .   S
    C278   O569      0.69024      .   S
    C319   O570      0.69022      .   S
    C323   O570      0.69022      .   S
    C329   O571      0.69786      .   S
    C206   O571      0.69786      .   S
    C329   O572      0.69787      .   S
    C176   O572      0.69787      .   S
    C327   O573      0.69787      .   S
    C161   O573      0.69787      .   S
    C327   O574      0.69785      .   S
    C221   O574      0.69785      .   S
    C253   O575      0.69906      .   S
    C344   O575      0.69906      .   S
    C253   O576      0.75221      .   S
    C252   O576      0.75221      .   S
    C298   O577      0.69955      .   S
    C344   O577      0.69955      .   S
    C298   O578      0.75201      .   S
    C297   O578      0.75201      .   S
    C383   O579      1.04134  1_445   S
    C11    O579      1.04134      .   S
    C371   O580      1.03890      .   S
    C8     O580      1.03890      .   S
    C206   O581      0.70142      .   S
    C205   O581      0.70142      .   S
    C161   O582      0.70140      .   S
    C160   O582      0.70140      .   S
    C391   O583      0.63722      .   S
    C252   O583      0.63722      .   S
    C391   O584      1.03978  1_565   S
    C1     O584      1.03978      .   S
    C403   O585      0.63713      .   S
    C297   O585      0.63713      .   S
    C403   O586      1.03885      .   S
    C4     O586      1.03885      .   S
    C30    O587      0.54425      .   S
    C176   O587      0.54425      .   S
    C57    O588      0.54425      .   S
    C221   O588      0.54425      .   S
    C369   O589      1.03664      .   S
    C2     O589      1.03664      .   S
    C381   O590      1.03902      .   S
    C5     O590      1.03902      .   S
    C176   O591      0.70145      .   S
    C175   O591      0.70145      .   S
    C221   O592      0.70143      .   S
    C220   O592      0.70143      .   S
    C364   O593      1.03373      .   S
    C1     O593      1.03373      .   S
    C364   O594      0.63886      .   S
    C159   O594      0.63886      .   S
    C376   O595      1.03419      .   S
    C4     O595      1.03419      .   S
    C376   O596      0.63890      .   S
    C204   O596      0.63890      .   S
    C320   O597      0.71734      .   S
    C322   O597      0.71734      .   S
    C320   O598      0.70615      .   S
    C316   O598      0.70615      .   S
    C275   O599      0.71715      .   S
    C277   O599      0.71715      .   S
    C275   O600      0.70640      .   S
    C271   O600      0.70640      .   S
    C323   O601      0.70675      .   S
    C322   O601      0.70675      .   S
    C323   O602      0.54422      .   S
    C119   O602      0.54422      .   S
    C278   O603      0.70662      .   S
    C277   O603      0.70662      .   S
    C278   O604      0.54418      .   S
    C92    O604      0.54418      .   S
    C114   O605      0.54428      .   S
    C316   O605      0.54428      .   S
    C87    O606      0.54426      .   S
    C271   O606      0.54426      .   S
    C344   O607      0.54402      .   S
    C140   O607      0.54402      .   S
    C252   O608      0.63600      .   S
    C389   O608      0.63600      .   S
    C297   O609      0.63604      .   S
    C401   O609      0.63604      .   S
    C205   O610      0.75203      .   S
    C204   O610      0.75203      .   S
    C205   O611      0.69973      .   S
    C328   O611      0.69973      .   S
    C160   O612      0.75193      .   S
    C159   O612      0.75193      .   S
    C160   O613      0.69976      .   S
    C326   O613      0.69976      .   S
    C1     O614      1.06453      .   S
    C390   O614      1.06453  1_565   S
    C1     O615      1.03808      .   S
    C365   O615      1.03808      .   S
    C4     O616      1.06587      .   S
    C402   O616      1.06587      .   S
    C4     O617      1.03658      .   S
    C377   O617      1.03658      .   S
    C322   O618      0.68962      .   S
    C359   O618      0.68962      .   S
    C316   O619      0.68915      .   S
    C317   O619      0.68915      .   S
    C277   O620      0.68955      .   S
    C356   O620      0.68955      .   S
    C271   O621      0.68916      .   S
    C272   O621      0.68916      .   S
    C175   O622      0.69975      .   S
    C328   O622      0.69975      .   S
    C175   O623      0.75206      .   S
    C174   O623      0.75206      .   S
    C220   O624      0.69971      .   S
    C326   O624      0.69971      .   S
    C220   O625      0.75200      .   S
    C219   O625      0.75200      .   S
    C204   O626      0.63681      .   S
    C378   O626      0.63681      .   S
    C159   O627      0.63680      .   S
    C366   O627      0.63680      .   S
    C328   O628      0.54297      .   S
    C124   O628      0.54297      .   S
    C326   O629      0.54353      .   S
    C122   O629      0.54353      .   S
    C174   O630      0.63680      .   S
    C370   O630      0.63680      .   S
    C174   O631      0.63891      .   S
    C368   O631      0.63891      .   S
    C219   O632      0.63689      .   S
    C382   O632      0.63689      .   S
    C219   O633      0.63882      .   S
    C380   O633      0.63882      .   S
    C370   O634      1.06586      .   S
    C8     O634      1.06586      .   S
    C382   O635      1.06461  1_545   S
    C11    O635      1.06461      .   S
    C359   O636      0.66792      .   S
    C318   O636      0.66792      .   S
    C359   O637      1.04424      .   S
    C11    O637      1.04424      .   S
    C368   O638      1.03446  1_455   S
    C2     O638      1.03446      .   S
    C317   O639      0.69696      .   S
    C318   O639      0.69696      .   S
    C317   O640      0.54480      .   S
    C115   O640      0.54480      .   S
    C356   O641      0.66762      .   S
    C273   O641      0.66762      .   S
    C356   O642      1.04324      .   S
    C8     O642      1.04324      .   S
    C380   O643      1.03406  1_655   S
    C5     O643      1.03406      .   S
    C272   O644      0.70300      .   S
    C273   O644      0.70300      .   S
    C272   O645      0.54481      .   S
    C88    O645      0.54481      .   S
    C35    O646      0.54457      .   S
    C183   O646      0.54457      .   S
    C62    O647      0.54471      .   S
    C228   O647      0.54471      .   S
    C318   O648      0.55085      .   S
    C116   O648      0.55085      .   S
    C390   O649      0.63657      .   S
    C249   O649      0.63657      .   S
    C402   O650      0.63681      .   S
    C294   O650      0.63681      .   S
    C273   O651      0.54456      .   S
    C89    O651      0.54456      .   S
    C11    O652      0.99317      .   S
    C404   O652      0.99317  1_455   S
    C11    O653      1.03902      .   S
    C405   O653      1.03902      .   S
    C8     O654      1.03446      .   S
    C392   O654      1.03446  1_655   S
    C8     O655      1.03664      .   S
    C393   O655      1.03664      .   S
    C389   O656      1.03809      .   S
    C7     O656      1.03809      .   S
    C401   O657      1.03658      .   S
    C10    O657      1.03658      .   S
    C377   O658      0.63598      .   S
    C207   O658      0.63598      .   S
    C365   O659      0.63600      .   S
    C162   O659      0.63600      .   S
    C2     O660      1.04323      .   S
    C350   O660      1.04323      .   S
    C2     O661      1.06534      .   S
    C394   O661      1.06534      .   S
    C2     O662      1.03890      .   S
    C395   O662      1.03890      .   S
    C5     O663      1.04422      .   S
    C353   O663      1.04422      .   S
    C5     O664      1.06461      .   S
    C406   O664      1.06461  1_565   S
    C5     O665      1.03976      .   S
    C407   O665      1.03976  1_665   S
    C34    O666      0.54462      .   S
    C182   O666      0.54462      .   S
    C183   O667      0.70317      .   S
    C182   O667      0.70317      .   S
    C183   O668      0.66762      .   S
    C350   O668      0.66762      .   S
    C378   O669      1.06586      .   S
    C10    O669      1.06586      .   S
    C366   O670      1.06454  1_545   S
    C7     O670      1.06454      .   S
    C228   O671      0.70304      .   S
    C227   O671      0.70304      .   S
    C228   O672      0.66768      .   S
    C353   O672      0.66768      .   S
    C61    O673      0.54480      .   S
    C227   O673      0.54480      .   S
    C128   O674      0.54353      .   S
    C332   O674      0.54353      .   S
    C130   O675      0.54344      .   S
    C334   O675      0.54344      .   S
    C134   O676      0.54402      .   S
    C338   O676      0.54402      .   S
    C182   O677      0.68920      .   S
    C181   O677      0.68920      .   S
    C404   O678      0.67711      .   S
    C309   O678      0.67711      .   S
    C350   O679      0.68953      .   S
    C187   O679      0.68953      .   S
    C227   O680      0.68909      .   S
    C226   O680      0.68909      .   S
    C392   O681      0.63890      .   S
    C264   O681      0.63890      .   S
    C353   O682      0.68963      .   S
    C232   O682      0.68963      .   S
    C394   O683      0.63782      .   S
    C264   O683      0.63782      .   S
    C406   O684      0.63691      .   S
    C309   O684      0.63691      .   S
    C309   O685      0.75202      .   S
    C310   O685      0.75202      .   S
    C264   O686      0.75206      .   S
    C265   O686      0.75206      .   S
    C332   O687      0.69971      .   S
    C310   O687      0.69971      .   S
    C332   O688      0.69975      .   S
    C250   O688      0.69975      .   S
    C334   O689      0.69976      .   S
    C265   O689      0.69976      .   S
    C334   O690      0.69974      .   S
    C295   O690      0.69974      .   S
    C249   O691      0.75177      .   S
    C250   O691      0.75177      .   S
    C249   O692      0.63923      .   S
    C388   O692      0.63923      .   S
    C294   O693      0.75204      .   S
    C295   O693      0.75204      .   S
    C294   O694      0.63887      .   S
    C400   O694      0.63887      .   S
    C310   O695      0.70149      .   S
    C311   O695      0.70149      .   S
    C265   O696      0.70144      .   S
    C266   O696      0.70144      .   S
    C38    O697      0.54419      .   S
    C188   O697      0.54419      .   S
    C181   O698      0.54423      .   S
    C33    O698      0.54423      .   S
    C181   O699      0.70617      .   S
    C185   O699      0.70617      .   S
    C65    O700      0.54422      .   S
    C233   O700      0.54422      .   S
    C187   O701      0.70674      .   S
    C188   O701      0.70674      .   S
    C187   O702      0.71722      .   S
    C185   O702      0.71722      .   S
    C226   O703      0.54428      .   S
    C60    O703      0.54428      .   S
    C226   O704      0.70615      .   S
    C230   O704      0.70615      .   S
    C232   O705      0.70674      .   S
    C233   O705      0.70674      .   S
    C232   O706      0.71733      .   S
    C230   O706      0.71733      .   S
    C10    O707      1.03415      .   S
    C400   O707      1.03415      .   S
    C10    O708      1.03884      .   S
    C379   O708      1.03884      .   S
    C10    O709      1.04316      .   S
    C358   O709      1.04316      .   S
    C7     O710      1.03373      .   S
    C388   O710      1.03373      .   S
    C7     O711      0.98991      .   S
    C367   O711      0.98991  1_545   S
    C7     O712      1.04343      .   S
    C355   O712      1.04343      .   S
    C250   O713      0.70140      .   S
    C251   O713      0.70140      .   S
    C295   O714      0.70134      .   S
    C296   O714      0.70134      .   S
    C80    O715      0.54454      .   S
    C258   O715      0.54454      .   S
    C107   O716      0.54456      .   S
    C303   O716      0.54456      .   S
    C207   O717      0.63717      .   S
    C379   O717      0.63717      .   S
    C207   O718      0.75190      .   S
    C208   O718      0.75190      .   S
    C162   O719      0.68243      .   S
    C367   O719      0.68243      .   S
    C162   O720      0.75220      .   S
    C163   O720      0.75220      .   S
    C338   O721      0.69881      .   S
    C208   O721      0.69881      .   S
    C338   O722      0.69906      .   S
    C163   O722      0.69906      .   S
    C188   O723      0.69023      .   S
    C184   O723      0.69023      .   S
    C233   O724      0.69021      .   S
    C229   O724      0.69021      .   S
    C185   O725      0.70960      .   S
    C186   O725      0.70960      .   S
    C230   O726      0.70956      .   S
    C231   O726      0.70956      .   S
    C311   O727      0.54319      .   S
    C111   O727      0.54319      .   S
    C311   O728      0.69893      .   S
    C333   O728      0.69893      .   S
    C266   O729      0.54425      .   S
    C84    O729      0.54425      .   S
    C266   O730      0.69787      .   S
    C335   O730      0.69787      .   S
    C405   O731      0.63606      .   S
    C312   O731      0.63606      .   S
    C393   O732      0.63603  1_455   S
    C267   O732      0.63603      .   S
    C251   O733      0.69783      .   S
    C333   O733      0.69783      .   S
    C251   O734      0.54432      .   S
    C75    O734      0.54432      .   S
    C296   O735      0.69787      .   S
    C335   O735      0.69787      .   S
    C296   O736      0.54426      .   S
    C102   O736      0.54426      .   S
    C395   O737      0.63716      .   S
    C267   O737      0.63716      .   S
    C407   O738      0.63737      .   S
    C312   O738      0.63737      .   S
    C208   O739      0.70099      .   S
    C209   O739      0.70099      .   S
    C163   O740      0.70136      .   S
    C164   O740      0.70136      .   S
    C333   O741      0.54494      .   S
    C129   O741      0.54494      .   S
    C335   O742      0.54489      .   S
    C131   O742      0.54489      .   S
    C229   O743      0.54439      .   S
    C63    O743      0.54439  1_655   S
    C229   O744      0.70715      .   S
    C225   O744      0.70715      .   S
    C184   O745      0.54437      .   S
    C36    O745      0.54437      .   S
    C184   O746      0.70720      .   S
    C180   O746      0.70720      .   S
    C231   O747      0.54515      .   S
    C64    O747      0.54515      .   S
    C231   O748      0.68858      .   S
    C225   O748      0.68858      .   S
    C186   O749      0.54512      .   S
    C37    O749      0.54512      .   S
    C186   O750      0.68866      .   S
    C180   O750      0.68866      .   S
    C127   O751      0.54488      .   S
    C331   O751      0.54488      .   S
    C258   O752      0.66762      .   S
    C355   O752      0.66762      .   S
    C258   O753      0.70307      .   S
    C257   O753      0.70307      .   S
    C303   O754      0.66760      .   S
    C358   O754      0.66760      .   S
    C303   O755      0.70299      .   S
    C302   O755      0.70299      .   S
    C267   O756      0.75134      .   S
    C268   O756      0.75134      .   S
    C312   O757      0.75247      .   S
    C313   O757      0.75247      .   S
    C225   O758      0.54498      .   S
    C59    O758      0.54498      .   S
    C180   O759      0.54514      .   S
    C32    O759      0.54514  1_565   S
    C355   O760      0.68944      .   S
    C262   O760      0.68944      .   S
    C358   O761      0.68948      .   S
    C307   O761      0.68948      .   S
    C79    O762      0.54482      .   S
    C257   O762      0.54482      .   S
    C106   O763      0.54478      .   S
    C302   O763      0.54478      .   S
    C68    O764      0.54494      .   S
    C240   O764      0.54494      .   S
    C95    O765      0.54515  1_545   S
    C285   O765      0.54515      .   S
    C73    O766      0.54511      .   S
    C246   O766      0.54511      .   S
    C100   O767      0.54516      .   S
    C291   O767      0.54516      .   S
    C257   O768      0.68920      .   S
    C256   O768      0.68920      .   S
    C302   O769      0.68914      .   S
    C301   O769      0.68914      .   S
    C331   O770      0.69784      .   S
    C281   O770      0.69784      .   S
    C331   O771      0.69784      .   S
    C236   O771      0.69784      .   S
    C209   O772      0.54508      .   S
    C49    O772      0.54508      .   S
    C209   O773      0.69799      .   S
    C339   O773      0.69799      .   S
    C164   O774      0.54455      .   S
    C22    O774      0.54455      .   S
    C164   O775      0.69795      .   S
    C339   O775      0.69795      .   S
    C240   O776      0.68859      .   S
    C246   O776      0.68859      .   S
    C240   O777      0.70713      .   S
    C244   O777      0.70713      .   S
    C93    O778      0.54449      .   S
    C281   O778      0.54449      .   S
    C66    O779      0.54423      .   S
    C236   O779      0.54423      .   S
    C285   O780      0.68862      .   S
    C291   O780      0.68862      .   S
    C285   O781      0.70718      .   S
    C289   O781      0.70718      .   S
    C246   O782      0.70963      .   S
    C245   O782      0.70963      .   S
    C291   O783      0.70965      .   S
    C290   O783      0.70965      .   S
    C110   O784      0.54421      .   S
    C308   O784      0.54421      .   S
    C83    O785      0.54417      .   S
    C263   O785      0.54417      .   S
    C69    O786      0.54425      .   S
    C241   O786      0.54425      .   S
    C96    O787      0.54432      .   S
    C286   O787      0.54432      .   S
    C268   O788      0.69961      .   S
    C346   O788      0.69961      .   S
    C268   O789      0.70130      .   S
    C269   O789      0.70130      .   S
    C313   O790      0.69926      .   S
    C342   O790      0.69926      .   S
    C313   O791      0.70132      .   S
    C314   O791      0.70132      .   S
    C72    O792      0.54428      .   S
    C244   O792      0.54428      .   S
    C138   O793      0.54398      .   S
    C342   O793      0.54398      .   S
    C142   O794      0.54399      .   S
    C346   O794      0.54399      .   S
    C99    O795      0.54434      .   S
    C289   O795      0.54434      .   S
    C281   O796      0.70145      .   S
    C280   O796      0.70145      .   S
    C262   O797      0.70675      .   S
    C263   O797      0.70675      .   S
    C262   O798      0.71725      .   S
    C260   O798      0.71725      .   S
    C236   O799      0.70144      .   S
    C235   O799      0.70144      .   S
    C244   O800      0.69022      .   S
    C248   O800      0.69022      .   S
    C307   O801      0.70677      .   S
    C308   O801      0.70677      .   S
    C307   O802      0.71718      .   S
    C305   O802      0.71718      .   S
    C85    O803      0.54464      .   S
    C269   O803      0.54464      .   S
    C112   O804      0.54466      .   S
    C314   O804      0.54466      .   S
    C289   O805      0.69019      .   S
    C293   O805      0.69019      .   S
    C339   O806      0.54512      .   S
    C135   O806      0.54512      .   S
    C245   O807      0.70610      .   S
    C241   O807      0.70610      .   S
    C245   O808      0.71709      .   S
    C247   O808      0.71709      .   S
    C290   O809      0.70605  1_455   S
    C286   O809      0.70605      .   S
    C290   O810      0.71742      .   S
    C292   O810      0.71742      .   S
    C241   O811      0.68912      .   S
    C242   O811      0.68912      .   S
    C286   O812      0.68918      .   S
    C287   O812      0.68918      .   S
    C263   O813      0.69017      .   S
    C259   O813      0.69017      .   S
    C308   O814      0.68946      .   S
    C304   O814      0.68946      .   S
    C342   O815      0.69921      .   S
    C238   O815      0.69921      .   S
    C346   O816      0.69910      .   S
    C283   O816      0.69910      .   S
    C256   O817      0.70622      .   S
    C260   O817      0.70622      .   S
    C256   O818      0.54432      .   S
    C78    O818      0.54432      .   S
    C301   O819      0.70613      .   S
    C305   O819      0.70613      .   S
    C301   O820      0.54422      .   S
    C105   O820      0.54422      .   S
    C269   O821      0.69790      .   S
    C347   O821      0.69790      .   S
    C314   O822      0.69793      .   S
    C343   O822      0.69793      .   S
    C248   O823      0.70658      .   S
    C247   O823      0.70658      .   S
    C248   O824      0.54424      .   S
    C74    O824      0.54424      .   S
    C293   O825      0.70677      .   S
    C292   O825      0.70677      .   S
    C293   O826      0.54421      .   S
    C101   O826      0.54421      .   S
    C247   O827      0.68997      .   S
    C354   O827      0.68997      .   S
    C292   O828      0.68953      .   S
    C357   O828      0.68953  1_655   S
    C242   O829      0.54481      .   S
    C70    O829      0.54481      .   S
    C242   O830      0.70283      .   S
    C243   O830      0.70283      .   S
    C287   O831      0.54481      .   S
    C97    O831      0.54481      .   S
    C287   O832      0.70310      .   S
    C288   O832      0.70310      .   S
    C260   O833      0.70959      .   S
    C261   O833      0.70959      .   S
    C305   O834      0.70962      .   S
    C306   O834      0.70962      .   S
    C280   O835      0.69977      .   S
    C330   O835      0.69977      .   S
    C280   O836      0.75187      .   S
    C279   O836      0.75187      .   S
    C235   O837      0.69966      .   S
    C330   O837      0.69966      .   S
    C235   O838      0.75191      .   S
    C234   O838      0.75191      .   S
    C354   O839      0.66743      .   S
    C243   O839      0.66743      .   S
    C354   O840      1.04380      .   S
    C6     O840      1.04380      .   S
    C357   O841      0.66739      .   S
    C288   O841      0.66739      .   S
    C357   O842      1.04355  1_655   S
    C9     O842      1.04355      .   S
    C243   O843      0.54498      .   S
    C71    O843      0.54498      .   S
    C288   O844      0.54456      .   S
    C98    O844      0.54456      .   S
    C396   O845      0.63885      .   S
    C279   O845      0.63885      .   S
    C396   O846      1.03372      .   S
    C9     O846      1.03372      .   S
    C384   O847      0.63879      .   S
    C234   O847      0.63879      .   S
    C384   O848      1.03382      .   S
    C6     O848      1.03382      .   S
    C304   O849      0.54487      .   S
    C108   O849      0.54487      .   S
    C304   O850      0.70753      .   S
    C300   O850      0.70753      .   S
    C259   O851      0.54433      .   S
    C81    O851      0.54433      .   S
    C259   O852      0.70722      .   S
    C255   O852      0.70722      .   S
    C283   O853      0.70129      .   S
    C284   O853      0.70129      .   S
    C283   O854      0.75216      .   S
    C282   O854      0.75216      .   S
    C238   O855      0.75236      .   S
    C237   O855      0.75236      .   S
    C238   O856      0.70099      .   S
    C239   O856      0.70099      .   S
    C347   O857      0.54520      .   S
    C143   O857      0.54520      .   S
    C347   O858      0.69795      .   S
    C284   O858      0.69795      .   S
    C343   O859      0.54527      .   S
    C139   O859      0.54527      .   S
    C343   O860      0.69798      .   S
    C239   O860      0.69798      .   S
    C385   O861      0.63602      .   S
    C237   O861      0.63602      .   S
    C385   O862      1.03876      .   S
    C6     O862      1.03876      .   S
    C397   O863      0.63597      .   S
    C282   O863      0.63597      .   S
    C397   O864      1.03806      .   S
    C9     O864      1.03806  1_455   S
    C330   O865      0.54348      .   S
    C126   O865      0.54348      .   S
    C279   O866      0.63672      .   S
    C398   O866      0.63672      .   S
    C234   O867      0.63685      .   S
    C386   O867      0.63685      .   S
    C261   O868      0.68864      .   S
    C255   O868      0.68864      .   S
    C261   O869      0.54513      .   S
    C82    O869      0.54513      .   S
    C306   O870      0.68868      .   S
    C300   O870      0.68868      .   S
    C306   O871      0.54514      .   S
    C109   O871      0.54514      .   S
    C237   O872      0.63723      .   S
    C387   O872      0.63723      .   S
    C284   O873      0.54465      .   S
    C94    O873      0.54465      .   S
    C282   O874      0.63723      .   S
    C399   O874      0.63723      .   S
    C239   O875      0.54495      .   S
    C67    O875      0.54495      .   S
    C0     O876      1.49269      .   S
    C6     O876      1.49269  1_556   S
    C1     O877      1.49140      .   S
    C7     O877      1.49141  1_565   S
    C2     O878      1.49155      .   S
    C8     O878      1.49155  1_455   S
    C3     O879      1.49126      .   S
    C9     O879      1.49126  1_456   S
    C4     O880      1.49101      .   S
    C10    O880      1.49101      .   S
    C5     O881      1.49346  1_445   S
    C11    O881      1.49346      .   S
