# CIF file generated by openbabel 2.4.90, see http://openbabel.sf.net
data_I
_chemical_name_common ''
_cell_length_a 13.958
_cell_length_b 14.283
_cell_length_c 14.292
_cell_angle_alpha 95.047
_cell_angle_beta 106.523
_cell_angle_gamma 107.078
_space_group_name_H-M_alt 'P 1'
_space_group_name_Hall 'P 1'
loop_
    _symmetry_equiv_pos_as_xyz
    x,y,z
loop_
    _atom_site_label
    _atom_site_type_symbol
    _atom_site_fract_x
    _atom_site_fract_y
    _atom_site_fract_z
    _atom_site_occupancy
    Zn0     Zn   0.36074   0.16198   0.87235   1.000
    Zn1     Zn   0.85933   0.87276   0.16077   1.000
    Zn2     Zn   0.63926   0.83802   0.12765   1.000
    Zn3     Zn   0.14067   0.12723   0.83923   1.000
    C4      C    0.20826   0.94979   0.84224   1.000
    C5      C    0.29794   0.33778   0.87194   1.000
    C6      C    0.29155   0.15673   0.04963   1.000
    C7      C    0.20462   0.12978   0.66341   1.000
    C8      C    0.79174   0.05020   0.15775   1.000
    C9      C    0.70205   0.66221   0.12806   1.000
    C10     C    0.70845   0.84326   0.95037   1.000
    C11     C    0.79538   0.87021   0.33659   1.000
    O12     O    0.12797   0.97657   0.83917   1.000
    O13     O    0.38035   0.31149   0.89324   1.000
    O14     O    0.30016   0.00698   0.84782   1.000
    O15     O    0.20196   0.28014   0.84750   1.000
    O16     O    0.37166   0.16056   0.02182   1.000
    O17     O    0.12224   0.10720   0.69044   1.000
    O18     O    0.19935   0.14968   0.99346   1.000
    O19     O    0.30065   0.15569   0.72019   1.000
    O20     O    0.87202   0.02342   0.16082   1.000
    O21     O    0.61965   0.68851   0.10676   1.000
    O22     O    0.69984   0.99301   0.15217   1.000
    O23     O    0.79804   0.71985   0.15250   1.000
    O24     O    0.62833   0.83942   0.97817   1.000
    O25     O    0.87776   0.89279   0.30955   1.000
    O26     O    0.80065   0.85031   0.00653   1.000
    O27     O    0.69934   0.84431   0.27981   1.000
    Ts28    Ts   0.41041   0.16229   0.87368   1.000
    Ts29    Ts   0.90906   0.87411   0.16117   1.000
    Ts30    Ts   0.58959   0.83770   0.12631   1.000
    Ts31    Ts   0.09094   0.12589   0.83882   1.000
    Og32    Og   0.20429   0.91450   0.84242   1.000
    Og33    Og   0.30319   0.37353   0.87323   1.000
    Og34    Og   0.29573   0.15683   0.08493   1.000
    Og35    Og   0.19928   0.12842   0.62771   1.000
    Og36    Og   0.79571   0.08549   0.15758   1.000
    Og37    Og   0.69680   0.62647   0.12677   1.000
    Og38    Og   0.70427   0.84316   0.91507   1.000
    Og39    Og   0.80072   0.87158   0.37229   1.000
loop_
    _geom_bond_atom_site_label_1
    _geom_bond_atom_site_label_2
    _geom_bond_distance
    _geom_bond_site_symmetry_2
    _ccdc_geom_bond_type
    O26    Zn1       2.08026      .   S
    O26    C10       1.27782  1_554   S
    O16    C6        1.27743      .   S
    O16    Zn0       2.10043  1_554   S
    C6     O18       1.27783  1_554   S
    O21    Zn2       2.05486      .   S
    O21    C9        1.27722      .   S
    Zn2    O22       2.08187      .   S
    Zn2    O27       2.07954      .   S
    Zn2    O24       2.10044  1_554   S
    C9     O23       1.27676      .   S
    O22    C8        1.27821  1_565   S
    O23    Zn1       2.07725      .   S
    C8     O20       1.27699      .   S
    Zn1    O20       2.10669  1_565   S
    Zn1    O25       2.05142      .   S
    O27    C11       1.27646      .   S
    O25    C11       1.27760      .   S
    C7     O17       1.27759      .   S
    C7     O19       1.27646      .   S
    O17    Zn3       2.05144      .   S
    O19    Zn0       2.07953      .   S
    O12    Zn3       2.10666  1_565   S
    O12    C4        1.27701      .   S
    Zn3    O15       2.07726      .   S
    Zn3    O18       2.08024      .   S
    C4     O14       1.27821  1_565   S
    O15    C5        1.27676      .   S
    O14    Zn0       2.08190      .   S
    C5     O13       1.27724      .   S
    Zn0    O13       2.05482      .   S
    C10    O24       1.27743      .   S
    Zn3    Zn0       2.85348      .   S
    Zn1    Zn2       2.85347      .   S
    Zn0    Ts28      0.68682      .   S
    Zn1    Ts29      0.68705      .   S
    Zn2    Ts30      0.68682      .   S
    Zn3    Ts31      0.68704      .   S
    C4     Og32      0.49101      .   S
    C5     Og33      0.49189      .   S
    C6     Og34      0.49089      .   S
    C7     Og35      0.49202      .   S
    C8     Og36      0.49100      .   S
    C9     Og37      0.49189      .   S
    C10    Og38      0.49089      .   S
    C11    Og39      0.49202      .   S
