# CIF file generated by openbabel 2.4.90, see http://openbabel.sf.net
data_I
_chemical_name_common ''
_cell_length_a 13.958
_cell_length_b 14.283
_cell_length_c 14.292
_cell_angle_alpha 95.047
_cell_angle_beta 106.523
_cell_angle_gamma 107.078
_space_group_name_H-M_alt 'P 1'
_space_group_name_Hall 'P 1'
loop_
    _symmetry_equiv_pos_as_xyz
    x,y,z
loop_
    _atom_site_label
    _atom_site_type_symbol
    _atom_site_fract_x
    _atom_site_fract_y
    _atom_site_fract_z
    _atom_site_occupancy
    N0      N    0.25809   0.64604   0.86866   1.000
    N1      N    0.75060   0.14300   0.85719   1.000
    N2      N    0.25016   0.85700   0.14280   1.000
    N3      N    0.74191   0.35396   0.13134   1.000
    N4      N    0.75659   0.86763   0.64554   1.000
    N5      N    0.24341   0.13237   0.35445   1.000
    Zr6     Zr   0.74942   0.85631   0.14339   1.000
    O7      O    0.57844   0.85179   0.13881   1.000
    O8      O    0.75961   0.04243   0.14390   1.000
    O9      O    0.73373   0.66879   0.13606   1.000
    O10     O    0.92073   0.86110   0.14774   1.000
    O11     O    0.73940   0.85584   0.95744   1.000
    O12     O    0.76470   0.86313   0.33062   1.000
    Zr13    Zr   0.25058   0.14369   0.85660   1.000
    O14     O    0.07946   0.13889   0.85226   1.000
    O15     O    0.26627   0.33120   0.86393   1.000
    O16     O    0.23530   0.13687   0.66938   1.000
    O17     O    0.42175   0.14820   0.86119   1.000
    O18     O    0.24039   0.95756   0.85609   1.000
    O19     O    0.26060   0.14415   0.04256   1.000
loop_
    _geom_bond_atom_site_label_1
    _geom_bond_atom_site_label_2
    _geom_bond_distance
    _geom_bond_site_symmetry_2
    _ccdc_geom_bond_type
    Zr6    O7        2.35033      .   S
    N2     O7        4.62093      .   S
    Zr6    O8        2.61936  1_565   S
    N3     O8        4.54454      .   S
    Zr6    O9        2.61253      .   S
    N3     O9        4.52672      .   S
    Zr6    O10       2.35474      .   S
    N2     O10       4.63609  1_455   S
    Zr6    O11       2.62065  1_554   S
    N4     O11       4.54673      .   S
    Zr6    O12       2.61386      .   S
    N4     O12       4.52972      .   S
    Zr13   O14       2.35208      .   S
    N1     O14       4.62812  1_655   S
    Zr13   O15       2.61253      .   S
    N0     O15       4.52671      .   S
    Zr13   O16       2.61385      .   S
    N5     O16       4.52972      .   S
    Zr13   O17       2.35298      .   S
    N1     O17       4.62890      .   S
    Zr13   O18       2.61936  1_545   S
    N0     O18       4.54456      .   S
    Zr13   O19       2.62065  1_556   S
    N5     O19       4.54673      .   S
