# CIF file generated by openbabel 2.4.90, see http://openbabel.sf.net
data_I
_chemical_name_common ''
_cell_length_a 15.556
_cell_length_b 21.857
_cell_length_c 21.842
_cell_angle_alpha 119.901
_cell_angle_beta 89.952
_cell_angle_gamma 90.044
_space_group_name_H-M_alt 'P 1'
_space_group_name_Hall 'P 1'
loop_
    _symmetry_equiv_pos_as_xyz
    x,y,z
loop_
    _atom_site_label
    _atom_site_type_symbol
    _atom_site_fract_x
    _atom_site_fract_y
    _atom_site_fract_z
    _atom_site_occupancy
    Zn0     Zn   0.50001   0.49999   0.50000   1.000
    Zn1     Zn   0.00000   1.00000   0.50000   1.000
    Zn2     Zn   0.50000   0.00001   0.50000   1.000
    Zn3     Zn   0.00001   0.50000   0.00000   1.000
    Zn4     Zn   0.50001   0.49999   0.99999   1.000
    Zn5     Zn   0.00000   0.50000   0.49999   1.000
    Ts6     Ts   0.52940   0.50136   0.52662   1.000
    Ts7     Ts   0.47063   0.49862   0.47338   1.000
    Ts8     Ts   0.47770   0.47260   0.50006   1.000
    Ts9     Ts   0.52943   0.47513   0.47496   1.000
    Ts10    Ts   0.52232   0.52738   0.49993   1.000
    Ts11    Ts   0.47059   0.52485   0.52504   1.000
    Ts12    Ts   0.02938   0.02515   0.49852   1.000
    Ts13    Ts   0.97063   0.97484   0.50147   1.000
    Ts14    Ts   0.97769   0.02747   0.52738   1.000
    Ts15    Ts   0.02941   0.99992   0.52496   1.000
    Ts16    Ts   0.02231   0.97252   0.47262   1.000
    Ts17    Ts   0.97060   0.00007   0.47504   1.000
    Ts18    Ts   0.52938   0.02516   0.49852   1.000
    Ts19    Ts   0.47063   0.97485   0.50147   1.000
    Ts20    Ts   0.47769   0.02748   0.52738   1.000
    Ts21    Ts   0.52942   0.99993   0.52496   1.000
    Ts22    Ts   0.52232   0.97253   0.47262   1.000
    Ts23    Ts   0.47060   0.00008   0.47504   1.000
    Ts24    Ts   0.02944   0.47334   0.97467   1.000
    Ts25    Ts   0.97058   0.52665   0.02527   1.000
    Ts26    Ts   0.97771   0.49996   0.97258   1.000
    Ts27    Ts   0.02945   0.52499   0.00007   1.000
    Ts28    Ts   0.02230   0.50004   0.02743   1.000
    Ts29    Ts   0.97057   0.47501   0.99967   1.000
    Ts30    Ts   0.52944   0.47333   0.97472   1.000
    Ts31    Ts   0.47058   0.52665   0.02526   1.000
    Ts32    Ts   0.47771   0.49995   0.97256   1.000
    Ts33    Ts   0.52945   0.52498   0.00006   1.000
    Ts34    Ts   0.52231   0.50003   0.02742   1.000
    Ts35    Ts   0.47057   0.47500   0.99992   1.000
    Ts36    Ts   0.02939   0.50137   0.52659   1.000
    Ts37    Ts   0.97062   0.49862   0.47337   1.000
    Ts38    Ts   0.97770   0.47260   0.50005   1.000
    Ts39    Ts   0.02943   0.47514   0.47495   1.000
    Ts40    Ts   0.02231   0.52739   0.49993   1.000
    Ts41    Ts   0.97059   0.52485   0.52503   1.000
loop_
    _geom_bond_atom_site_label_1
    _geom_bond_atom_site_label_2
    _geom_bond_distance
    _geom_bond_site_symmetry_2
    _ccdc_geom_bond_type
    Zn0    Ts6       0.72860      .   S
    Zn0    Ts7       0.72866      .   S
    Zn0    Ts8       0.69238      .   S
    Zn0    Ts9       0.71240      .   S
    Zn0    Ts10      0.69242      .   S
    Zn0    Ts11      0.71241      .   S
    Zn1    Ts12      0.72756  1_565   S
    Zn1    Ts13      0.72757  1_455   S
    Zn1    Ts14      0.69322  1_465   S
    Zn1    Ts15      0.71275      .   S
    Zn1    Ts16      0.69338      .   S
    Zn1    Ts17      0.71262  1_465   S
    Zn2    Ts18      0.72757      .   S
    Zn2    Ts19      0.72752  1_545   S
    Zn2    Ts20      0.69326      .   S
    Zn2    Ts21      0.71270  1_545   S
    Zn2    Ts22      0.69338  1_545   S
    Zn2    Ts23      0.71266      .   S
    Zn3    Ts24      0.73060  1_554   S
    Zn3    Ts25      0.73009  1_455   S
    Zn3    Ts26      0.69202  1_454   S
    Zn3    Ts27      0.71198      .   S
    Zn3    Ts28      0.69209      .   S
    Zn3    Ts29      0.70973  1_454   S
    Zn4    Ts30      0.73009      .   S
    Zn4    Ts31      0.73013  1_556   S
    Zn4    Ts32      0.69214      .   S
    Zn4    Ts33      0.71196  1_556   S
    Zn4    Ts34      0.69208  1_556   S
    Zn4    Ts35      0.71195      .   S
    Zn5    Ts36      0.72840      .   S
    Zn5    Ts37      0.72858  1_455   S
    Zn5    Ts38      0.69237  1_455   S
    Zn5    Ts39      0.71241      .   S
    Zn5    Ts40      0.69241      .   S
    Zn5    Ts41      0.71232  1_455   S
