# CIF file generated by openbabel 2.4.90, see http://openbabel.sf.net
data_I
_chemical_name_common ''
_cell_length_a 15.556
_cell_length_b 21.857
_cell_length_c 21.842
_cell_angle_alpha 119.901
_cell_angle_beta 89.952
_cell_angle_gamma 90.044
_space_group_name_H-M_alt 'P 1'
_space_group_name_Hall 'P 1'
loop_
    _symmetry_equiv_pos_as_xyz
    x,y,z
loop_
    _atom_site_label
    _atom_site_type_symbol
    _atom_site_fract_x
    _atom_site_fract_y
    _atom_site_fract_z
    _atom_site_occupancy
    Zr0     Zr   0.00000   0.50000   0.49999   1.000
    Zr1     Zr   0.50001   0.49999   0.50000   1.000
    Zr2     Zr   0.00000   1.00000   0.50000   1.000
    Zr3     Zr   0.50000   0.00001   0.50000   1.000
    Zr4     Zr   0.00001   0.50000   0.00000   1.000
    Zr5     Zr   0.50001   0.49999   0.99999   1.000
    N6      N    0.63630   0.77293   0.24234   1.000
    O7      O    0.58489   0.86586   0.35063   1.000
    O8      O    0.54609   0.88653   0.35245   1.000
    O9      O    0.79608   0.65646   0.14012   1.000
    N10     N    0.36379   0.24230   0.46939   1.000
    O11     O    0.20393   0.14001   0.48359   1.000
    O12     O    0.45397   0.35250   0.46592   1.000
    O13     O    0.41517   0.35060   0.48474   1.000
    N14     N    0.36372   0.22690   0.75764   1.000
    O15     O    0.41513   0.13406   0.64935   1.000
    O16     O    0.20394   0.34346   0.85982   1.000
    O17     O    0.45392   0.11340   0.64754   1.000
    N18     N    0.86380   0.24231   0.46942   1.000
    O19     O    0.95397   0.35251   0.46593   1.000
    O20     O    0.70394   0.14002   0.48360   1.000
    O21     O    0.91517   0.35061   0.48475   1.000
    N22     N    0.86372   0.22690   0.75765   1.000
    O23     O    0.91513   0.13405   0.64936   1.000
    O24     O    0.70394   0.34345   0.85987   1.000
    O25     O    0.95392   0.11339   0.64755   1.000
    N26     N    0.63623   0.75767   0.53054   1.000
    O27     O    0.58485   0.64938   0.51522   1.000
    O28     O    0.54605   0.64748   0.53405   1.000
    O29     O    0.79608   0.85997   0.51638   1.000
    N30     N    0.13630   0.77293   0.24233   1.000
    O31     O    0.29608   0.65646   0.14011   1.000
    O32     O    0.04610   0.88652   0.35244   1.000
    O33     O    0.08489   0.86586   0.35063   1.000
    N34     N    0.13623   0.75768   0.53056   1.000
    O35     O    0.29609   0.85998   0.51638   1.000
    O36     O    0.08485   0.64938   0.51523   1.000
    O37     O    0.04605   0.64748   0.53405   1.000
    N38     N    0.36378   0.53051   0.77280   1.000
    O39     O    0.45398   0.53399   0.88645   1.000
    O40     O    0.41517   0.51522   0.86582   1.000
    O41     O    0.20393   0.51628   0.65635   1.000
    N42     N    0.86378   0.53051   0.77281   1.000
    O43     O    0.95398   0.53400   0.88645   1.000
    O44     O    0.70394   0.51628   0.65637   1.000
    O45     O    0.91517   0.51522   0.86584   1.000
    N46     N    0.13625   0.46947   0.22699   1.000
    O47     O    0.08485   0.48476   0.13407   1.000
    O48     O    0.29609   0.48370   0.34353   1.000
    O49     O    0.04605   0.46599   0.11325   1.000
    N50     N    0.63624   0.46948   0.22702   1.000
    O51     O    0.58485   0.48477   0.13407   1.000
    O52     O    0.54604   0.46599   0.11345   1.000
    O53     O    0.79608   0.48371   0.34354   1.000
loop_
    _geom_bond_atom_site_label_1
    _geom_bond_atom_site_label_2
    _geom_bond_distance
    _geom_bond_site_symmetry_2
    _ccdc_geom_bond_type
    N6     O7        2.35995      .   S
    Zr3    O7        3.38319  1_545   S
    N6     O8        2.82200      .   S
    Zr3    O8        3.01366  1_545   S
    N6     O9        3.46087      .   S
    Zr4    O9        4.54866  1_455   S
    N10    O11       3.45837      .   S
    Zr2    O11       4.54253  1_565   S
    N10    O12       2.81990      .   S
    Zr1    O12       3.01060      .   S
    N10    O13       2.35807      .   S
    Zr1    O13       3.37985      .   S
    N14    O15       2.35913      .   S
    Zr3    O15       3.38216      .   S
    N14    O16       3.46137      .   S
    Zr4    O16       4.54981  1_554   S
    N14    O17       2.82105      .   S
    Zr3    O17       3.01280      .   S
    N18    O19       2.82003      .   S
    Zr0    O19       3.01069  1_455   S
    N18    O20       3.45822      .   S
    Zr3    O20       4.54240      .   S
    N18    O21       2.35818      .   S
    Zr0    O21       3.37997  1_455   S
    N22    O23       2.35921      .   S
    Zr2    O23       3.38218  1_465   S
    N22    O24       3.46160      .   S
    Zr5    O24       4.54942      .   S
    N22    O25       2.82105      .   S
    Zr2    O25       3.01290  1_465   S
    N26    O27       2.35829      .   S
    Zr1    O27       3.38014      .   S
    N26    O28       2.82020      .   S
    Zr1    O28       3.01080      .   S
    N26    O29       3.45814      .   S
    Zr2    O29       4.54229  1_455   S
    N30    O31       3.46086      .   S
    Zr5    O31       4.54873  1_556   S
    N30    O32       2.82201      .   S
    Zr2    O32       3.01370      .   S
    N30    O33       2.35998      .   S
    Zr2    O33       3.38322      .   S
    N34    O35       3.45823      .   S
    Zr3    O35       4.54232  1_545   S
    N34    O36       2.35828      .   S
    Zr0    O36       3.38011      .   S
    N34    O37       2.82014      .   S
    Zr0    O37       3.01080      .   S
    N38    O39       2.82014      .   S
    Zr5    O39       3.00950      .   S
    N38    O40       2.35779      .   S
    Zr5    O40       3.37932      .   S
    N38    O41       3.45983      .   S
    Zr0    O41       4.54511      .   S
    N42    O43       2.82013      .   S
    Zr4    O43       3.00953  1_454   S
    N42    O44       3.45959      .   S
    Zr1    O44       4.54515      .   S
    N42    O45       2.35789      .   S
    Zr4    O45       3.37924  1_454   S
    N46    O47       2.35587      .   S
    Zr4    O47       3.37735      .   S
    N46    O48       3.46109      .   S
    Zr1    O48       4.54677      .   S
    N46    O49       2.82209      .   S
    Zr4    O49       3.00338      .   S
    N50    O51       2.35613      .   S
    Zr5    O51       3.37759  1_556   S
    N50    O52       2.81856      .   S
    Zr5    O52       3.00775  1_556   S
    N50    O53       3.46087      .   S
    Zr0    O53       4.54642  1_455   S
