# CIF file generated by openbabel 2.4.90, see http://openbabel.sf.net
data_I
_chemical_name_common ''
_cell_length_a 15.556
_cell_length_b 21.857
_cell_length_c 21.842
_cell_angle_alpha 119.901
_cell_angle_beta 89.952
_cell_angle_gamma 90.044
_space_group_name_H-M_alt 'P 1'
_space_group_name_Hall 'P 1'
loop_
    _symmetry_equiv_pos_as_xyz
    x,y,z
loop_
    _atom_site_label
    _atom_site_type_symbol
    _atom_site_fract_x
    _atom_site_fract_y
    _atom_site_fract_z
    _atom_site_occupancy
    N0      N    0.63630   0.77293   0.24234   1.000
    N1      N    0.36379   0.24230   0.46939   1.000
    N2      N    0.36372   0.22690   0.75764   1.000
    N3      N    0.86380   0.24231   0.46942   1.000
    N4      N    0.86372   0.22690   0.75765   1.000
    N5      N    0.63623   0.75767   0.53054   1.000
    N6      N    0.13630   0.77293   0.24233   1.000
    N7      N    0.13623   0.75768   0.53056   1.000
    N8      N    0.36378   0.53051   0.77280   1.000
    N9      N    0.86378   0.53051   0.77281   1.000
    N10     N    0.13625   0.46947   0.22699   1.000
    N11     N    0.63624   0.46948   0.22702   1.000
    Zr12    Zr   0.50001   0.49999   0.99999   1.000
    O13     O    0.45759   0.50760   0.93291   1.000
    O14     O    0.60198   0.42172   0.92993   1.000
    O15     O    0.54243   0.49238   0.06703   1.000
    O16     O    0.52303   0.48299   0.05672   1.000
    O17     O    0.39805   0.57822   0.07005   1.000
    O18     O    0.47699   0.51699   0.94322   1.000
    Zr19    Zr   0.00000   0.50000   0.49999   1.000
    O20     O    0.10197   0.50814   0.57817   1.000
    O21     O    0.97699   0.42625   0.48296   1.000
    O22     O    0.95759   0.42530   0.49237   1.000
    O23     O    0.89804   0.49185   0.42177   1.000
    O24     O    0.02303   0.57374   0.51702   1.000
    O25     O    0.04242   0.57469   0.50761   1.000
    Zr26    Zr   0.50001   0.49999   0.50000   1.000
    O27     O    0.54243   0.57468   0.50761   1.000
    O28     O    0.52303   0.57373   0.51703   1.000
    O29     O    0.39805   0.49184   0.42177   1.000
    O30     O    0.45759   0.42529   0.49237   1.000
    O31     O    0.47699   0.42624   0.48296   1.000
    O32     O    0.60198   0.50813   0.57818   1.000
    Zr33    Zr   0.50000   0.00001   0.50000   1.000
    O34     O    0.60197   0.07001   0.49180   1.000
    O35     O    0.45757   0.06703   0.57468   1.000
    O36     O    0.47696   0.05670   0.57377   1.000
    O37     O    0.39805   0.92999   0.50819   1.000
    O38     O    0.54245   0.93293   0.42532   1.000
    O39     O    0.52305   0.94327   0.42622   1.000
    Zr40    Zr   0.00000   1.00000   0.50000   1.000
    O41     O    0.95757   0.06702   0.57468   1.000
    O42     O    0.97696   0.05669   0.57377   1.000
    O43     O    0.89804   0.92998   0.50819   1.000
    O44     O    0.10197   0.07001   0.49179   1.000
    O45     O    0.04244   0.93293   0.42531   1.000
    O46     O    0.02305   0.94326   0.42622   1.000
    Zr47    Zr   0.00001   0.50000   0.00000   1.000
    O48     O    0.04243   0.49238   0.06703   1.000
    O49     O    0.02303   0.48299   0.05662   1.000
    O50     O    0.10197   0.42173   0.92991   1.000
    O51     O    0.97699   0.51700   0.94323   1.000
    O52     O    0.95759   0.50761   0.93292   1.000
    O53     O    0.89804   0.57823   0.07006   1.000
loop_
    _geom_bond_atom_site_label_1
    _geom_bond_atom_site_label_2
    _geom_bond_distance
    _geom_bond_site_symmetry_2
    _ccdc_geom_bond_type
    Zr12   O13       1.68966      .   S
    N8     O13       4.04533      .   S
    Zr12   O14       2.27471      .   S
    N4     O14       5.73562      .   S
    Zr12   O15       1.68879  1_556   S
    N11    O15       4.04280      .   S
    Zr12   O16       1.50387  1_556   S
    N11    O16       4.25806      .   S
    Zr12   O17       2.27436  1_556   S
    N6     O17       5.73453      .   S
    Zr12   O18       1.50475      .   S
    N8     O18       4.26056      .   S
    Zr19   O20       2.27255      .   S
    N8     O20       5.73169      .   S
    Zr19   O21       1.50534  1_455   S
    N3     O21       4.26100      .   S
    Zr19   O22       1.68998  1_455   S
    N3     O22       4.04603      .   S
    Zr19   O23       2.27321  1_455   S
    N11    O23       5.73338      .   S
    Zr19   O24       1.50540      .   S
    N7     O24       4.26118      .   S
    Zr19   O25       1.69005      .   S
    N7     O25       4.04620      .   S
    Zr26   O27       1.69007      .   S
    N5     O27       4.04622      .   S
    Zr26   O28       1.50540      .   S
    N5     O28       4.26122      .   S
    Zr26   O29       2.27338      .   S
    N10    O29       5.73378      .   S
    Zr26   O30       1.68993      .   S
    N1     O30       4.04586      .   S
    Zr26   O31       1.50530      .   S
    N1     O31       4.26082      .   S
    Zr26   O32       2.27257      .   S
    N9     O32       5.73147      .   S
    Zr33   O34       2.27120      .   S
    N3     O34       5.72874      .   S
    Zr33   O35       1.69108      .   S
    N2     O35       4.04806      .   S
    Zr33   O36       1.50640      .   S
    N2     O36       4.26307      .   S
    Zr33   O37       2.27116  1_545   S
    N7     O37       5.72871      .   S
    Zr33   O38       1.69160  1_545   S
    N0     O38       4.04940      .   S
    Zr33   O39       1.50683  1_545   S
    N0     O39       4.26448      .   S
    Zr40   O41       1.69109  1_465   S
    N4     O41       4.04815      .   S
    Zr40   O42       1.50645  1_465   S
    N4     O42       4.26312      .   S
    Zr40   O43       2.27114  1_455   S
    N5     O43       5.72860      .   S
    Zr40   O44       2.27126  1_565   S
    N1     O44       5.72895      .   S
    Zr40   O45       1.69161      .   S
    N6     O45       4.04945      .   S
    Zr40   O46       1.50685      .   S
    N6     O46       4.26451      .   S
    Zr47   O48       1.68868      .   S
    N10    O48       4.04243      .   S
    Zr47   O49       1.50169      .   S
    N10    O49       4.25967      .   S
    Zr47   O50       2.27491  1_554   S
    N2     O50       5.73557      .   S
    Zr47   O51       1.50477  1_454   S
    N9     O51       4.26056      .   S
    Zr47   O52       1.68962  1_454   S
    N9     O52       4.04539      .   S
    Zr47   O53       2.27433  1_455   S
    N0     O53       5.73450      .   S
