# CIF file generated by openbabel 2.4.90, see http://openbabel.sf.net
data_I
_chemical_name_common ''
_cell_length_a 17.434
_cell_length_b 12.841
_cell_length_c 17.875
_cell_angle_alpha 90.002
_cell_angle_beta 89.998
_cell_angle_gamma 112.94
_space_group_name_H-M_alt 'P 1'
_space_group_name_Hall 'P 1'
loop_
    _symmetry_equiv_pos_as_xyz
    x,y,z
loop_
    _atom_site_label
    _atom_site_type_symbol
    _atom_site_fract_x
    _atom_site_fract_y
    _atom_site_fract_z
    _atom_site_occupancy
    H0      H    0.28925   0.65175   0.80430   1.000
    H1      H    0.78925   0.65175   0.80430   1.000
    H2      H    0.18579   0.46305   0.76612   1.000
    H3      H    0.68579   0.46305   0.76612   1.000
    H4      H    0.32823   0.47985   0.56535   1.000
    H5      H    0.82823   0.47985   0.56535   1.000
    H6      H    0.42957   0.66653   0.60358   1.000
    H7      H    0.92957   0.66653   0.60358   1.000
    H8      H    0.19292   0.38310   0.52805   1.000
    H9      H    0.69292   0.38310   0.52805   1.000
    H10     H    0.24727   0.30115   0.56162   1.000
    H11     H    0.74727   0.30115   0.56162   1.000
    H12     H    0.41303   0.81549   0.83322   1.000
    H13     H    0.91303   0.81549   0.83322   1.000
    H14     H    0.47697   0.74009   0.80941   1.000
    H15     H    0.97697   0.74009   0.80941   1.000
    H16     H    0.19546   0.86967   0.48155   1.000
    H17     H    0.69546   0.86967   0.48150   1.000
    H18     H    0.10735   0.79684   0.42534   1.000
    H19     H    0.60735   0.79684   0.42534   1.000
    H20     H    0.11797   0.53118   0.58667   1.000
    H21     H    0.61797   0.53118   0.58667   1.000
    H22     H    0.99202   0.65925   0.42540   1.000
    H23     H    0.49202   0.65925   0.42540   1.000
    H24     H    0.46075   0.34823   0.30400   1.000
    H25     H    0.96075   0.34823   0.30400   1.000
    H26     H    0.06422   0.53692   0.26611   1.000
    H27     H    0.56422   0.53692   0.26611   1.000
    H28     H    0.42178   0.52011   0.06535   1.000
    H29     H    0.92178   0.52011   0.06535   1.000
    H30     H    0.32044   0.33344   0.10358   1.000
    H31     H    0.82044   0.33344   0.10358   1.000
    H32     H    0.05708   0.61686   0.02804   1.000
    H33     H    0.55708   0.61686   0.02800   1.000
    H34     H    0.00274   0.69882   0.06162   1.000
    H35     H    0.50273   0.69882   0.06162   1.000
    H36     H    0.33698   0.18448   0.33321   1.000
    H37     H    0.83698   0.18448   0.33321   1.000
    H38     H    0.27305   0.25988   0.30942   1.000
    H39     H    0.77305   0.25988   0.30942   1.000
    H40     H    0.05456   0.13031   0.98150   1.000
    H41     H    0.55456   0.13031   0.98156   1.000
    H42     H    0.14268   0.20313   0.92535   1.000
    H43     H    0.64268   0.20313   0.92535   1.000
    H44     H    0.13204   0.46881   0.08666   1.000
    H45     H    0.63204   0.46881   0.08666   1.000
    H46     H    0.25800   0.34072   0.92541   1.000
    H47     H    0.75800   0.34073   0.92541   1.000
    H48     H    0.21075   0.34820   0.19570   1.000
    H49     H    0.71075   0.34820   0.19570   1.000
    H50     H    0.31422   0.53690   0.23388   1.000
    H51     H    0.81422   0.53690   0.23388   1.000
    H52     H    0.17178   0.52011   0.43465   1.000
    H53     H    0.67178   0.52011   0.43465   1.000
    H54     H    0.07043   0.33344   0.39642   1.000
    H55     H    0.57043   0.33344   0.39642   1.000
    H56     H    0.30709   0.61686   0.47196   1.000
    H57     H    0.80709   0.61686   0.47196   1.000
    H58     H    0.25274   0.69881   0.43838   1.000
    H59     H    0.75274   0.69881   0.43838   1.000
    H60     H    0.08697   0.18447   0.16678   1.000
    H61     H    0.58697   0.18447   0.16678   1.000
    H62     H    0.02303   0.25987   0.19059   1.000
    H63     H    0.52303   0.25987   0.19059   1.000
    H64     H    0.30455   0.13031   0.51845   1.000
    H65     H    0.80455   0.13031   0.51845   1.000
    H66     H    0.39267   0.20314   0.57460   1.000
    H67     H    0.89267   0.20314   0.57460   1.000
    H68     H    0.38205   0.46881   0.41330   1.000
    H69     H    0.88205   0.46881   0.41330   1.000
    H70     H    0.50800   0.34073   0.57460   1.000
    H71     H    0.00000   0.34073   0.57460   1.000
    H72     H    0.03925   0.65173   0.69571   1.000
    H73     H    0.53925   0.65173   0.69571   1.000
    H74     H    0.43579   0.46303   0.73389   1.000
    H75     H    0.93579   0.46303   0.73389   1.000
    H76     H    0.07823   0.47985   0.93460   1.000
    H77     H    0.57823   0.47985   0.93460   1.000
    H78     H    0.17957   0.66652   0.89643   1.000
    H79     H    0.67957   0.66652   0.89643   1.000
    H80     H    0.44292   0.38310   0.97196   1.000
    H81     H    0.94292   0.38310   0.97196   1.000
    H82     H    0.49727   0.30114   0.93839   1.000
    H83     H    0.99727   0.30114   0.93839   1.000
    H84     H    0.16302   0.81548   0.66679   1.000
    H85     H    0.66302   0.81548   0.66679   1.000
    H86     H    0.22695   0.74008   0.69058   1.000
    H87     H    0.72695   0.74008   0.69058   1.000
    H88     H    0.44546   0.86968   0.01844   1.000
    H89     H    0.94546   0.86968   0.01840   1.000
    H90     H    0.35734   0.79686   0.07465   1.000
    H91     H    0.85734   0.79686   0.07465   1.000
    C92     C    0.98944   0.50790   0.76929   1.000
    C93     C    0.49819   0.45957   0.83700   1.000
    C94     C    0.99819   0.45957   0.83759   1.000
    C95     C    0.06761   0.51648   0.88287   1.000
    H96     H    0.36797   0.53117   0.91334   1.000
    H97     H    0.86797   0.53117   0.91334   1.000
    H98     H    0.24201   0.65926   0.07459   1.000
    H99     H    0.74201   0.65926   0.07459   1.000
    C100    C    0.36454   0.67191   0.70468   1.000
    C101    C    0.86454   0.67191   0.70468   1.000
    C102    C    0.29748   0.61390   0.75195   1.000
    C103    C    0.79748   0.61390   0.75195   1.000
    C104    C    0.23945   0.50792   0.73073   1.000
    C105    C    0.73945   0.50792   0.73073   1.000
    C106    C    0.24819   0.45958   0.66242   1.000
    C107    C    0.74819   0.45958   0.66242   1.000
    C108    C    0.31761   0.51649   0.61714   1.000
    C109    C    0.81761   0.51649   0.61714   1.000
    C110    C    0.37566   0.62228   0.63862   1.000
    C111    C    0.87566   0.62228   0.63862   1.000
    C112    C    0.19068   0.31880   0.56970   1.000
    C113    C    0.69068   0.31880   0.56970   1.000
    C114    C    0.11696   0.21041   0.55089   1.000
    C115    C    0.61696   0.21041   0.55089   1.000
    C116    C    0.45757   0.80812   0.79189   1.000
    C117    C    0.95757   0.80812   0.79189   1.000
    C118    C    0.03286   0.91964   0.78764   1.000
    C119    C    0.53286   0.91964   0.78764   1.000
    C120    C    0.08187   0.86530   0.52839   1.000
    C121    C    0.58187   0.86530   0.52839   1.000
    C122    C    0.13004   0.80960   0.48348   1.000
    C123    C    0.63004   0.80960   0.48348   1.000
    O124    O    0.13965   0.81194   0.98121   1.000
    O125    O    0.63965   0.81194   0.98121   1.000
    O126    O    0.16621   0.05688   0.34220   1.000
    O127    O    0.66621   0.05688   0.34228   1.000
    O128    O    0.07994   0.21638   0.28174   1.000
    C129    C    0.06354   0.60834   0.50723   1.000
    C130    C    0.56354   0.60834   0.50723   1.000
    C131    C    0.06616   0.51706   0.54844   1.000
    C132    C    0.56616   0.51706   0.54844   1.000
    C133    C    0.99656   0.59088   0.45869   1.000
    C134    C    0.49656   0.59088   0.45869   1.000
    C135    C    0.38546   0.32806   0.20467   1.000
    C136    C    0.88546   0.32806   0.20467   1.000
    C137    C    0.45253   0.38608   0.25194   1.000
    C138    C    0.95253   0.38608   0.25194   1.000
    C139    C    0.01056   0.49205   0.23070   1.000
    C140    C    0.51056   0.49205   0.23070   1.000
    C141    C    0.00182   0.54039   0.16241   1.000
    C142    C    0.50182   0.54039   0.16241   1.000
    C143    C    0.43240   0.48348   0.11713   1.000
    C144    C    0.93239   0.48348   0.11713   1.000
    C145    C    0.37435   0.37769   0.13861   1.000
    C146    C    0.87435   0.37769   0.13861   1.000
    C147    C    0.05932   0.68117   0.06976   1.000
    C148    C    0.55932   0.68117   0.06976   1.000
    C149    C    0.13304   0.78955   0.05088   1.000
    C150    C    0.63304   0.78955   0.05088   1.000
    C151    C    0.29245   0.19185   0.29189   1.000
    C152    C    0.79244   0.19185   0.29189   1.000
    C153    C    0.21715   0.08034   0.28760   1.000
    C154    C    0.71714   0.08034   0.28760   1.000
    C155    C    0.16814   0.13468   0.02839   1.000
    C156    C    0.66814   0.13468   0.02839   1.000
    C157    C    0.11998   0.19038   0.98349   1.000
    C158    C    0.61998   0.19038   0.98349   1.000
    C159    C    0.18648   0.39164   0.00722   1.000
    C160    C    0.68648   0.39164   0.00722   1.000
    C161    C    0.18386   0.48292   0.04840   1.000
    C162    C    0.68386   0.48292   0.04840   1.000
    C163    C    0.25346   0.40910   0.95870   1.000
    C164    C    0.75346   0.40910   0.95870   1.000
    C165    C    0.13546   0.32805   0.29530   1.000
    C166    C    0.63546   0.32805   0.29530   1.000
    C167    C    0.20252   0.38606   0.24805   1.000
    C168    C    0.70252   0.38606   0.24805   1.000
    C169    C    0.26056   0.49203   0.26928   1.000
    C170    C    0.76056   0.49203   0.26928   1.000
    C171    C    0.25182   0.54037   0.33759   1.000
    C172    C    0.75182   0.54037   0.33759   1.000
    C173    C    0.18239   0.48347   0.38287   1.000
    C174    C    0.68239   0.48347   0.38287   1.000
    C175    C    0.12435   0.37768   0.36130   1.000
    C176    C    0.62434   0.37768   0.36130   1.000
    C177    C    0.30932   0.68116   0.43024   1.000
    C178    C    0.80932   0.68116   0.43024   1.000
    C179    C    0.38304   0.78955   0.44911   1.000
    C180    C    0.88304   0.78955   0.44911   1.000
    C181    C    0.04244   0.19184   0.20811   1.000
    C182    C    0.54243   0.19184   0.20811   1.000
    C183    C    0.46714   0.08033   0.21235   1.000
    C184    C    0.96714   0.08033   0.21235   1.000
    C185    C    0.41814   0.13468   0.47161   1.000
    C186    C    0.91814   0.13468   0.47161   1.000
    C187    C    0.36997   0.19038   0.51650   1.000
    C188    C    0.86997   0.19038   0.51650   1.000
    C189    C    0.43648   0.39164   0.49278   1.000
    C190    C    0.93648   0.39164   0.49278   1.000
    C191    C    0.43386   0.48292   0.45156   1.000
    C192    C    0.93385   0.48292   0.45156   1.000
    C193    C    0.50346   0.40910   0.54130   1.000
    C194    C    0.00000   0.40910   0.54130   1.000
    C195    C    0.11454   0.67190   0.79533   1.000
    C196    C    0.61454   0.67190   0.79533   1.000
    C197    C    0.04748   0.61388   0.74806   1.000
    C198    C    0.54748   0.61388   0.74806   1.000
    C199    C    0.48945   0.50790   0.76929   1.000
    C200    C    0.56761   0.51648   0.88287   1.000
    C201    C    0.12565   0.62227   0.86139   1.000
    C202    C    0.62565   0.62227   0.86139   1.000
    C203    C    0.44069   0.31879   0.93025   1.000
    C204    C    0.94068   0.31879   0.93020   1.000
    C205    C    0.36696   0.21040   0.94912   1.000
    C206    C    0.86696   0.21040   0.94912   1.000
    C207    C    0.20756   0.80811   0.70810   1.000
    C208    C    0.70756   0.80811   0.70810   1.000
    C209    C    0.28286   0.91962   0.71236   1.000
    C210    C    0.78285   0.91962   0.71236   1.000
    C211    C    0.33186   0.86529   0.97161   1.000
    C212    C    0.83186   0.86529   0.97161   1.000
    C213    C    0.38004   0.80961   0.01651   1.000
    C214    C    0.88004   0.80961   0.01651   1.000
    C215    C    0.31353   0.60834   0.99279   1.000
    C216    C    0.81354   0.60834   0.99279   1.000
    C217    C    0.31616   0.51706   0.95157   1.000
    C218    C    0.81616   0.51706   0.95157   1.000
    C219    C    0.24655   0.59088   0.04130   1.000
    C220    C    0.74655   0.59088   0.04130   1.000
    O221    O    0.42005   0.78358   0.71820   1.000
    O222    O    0.92005   0.78358   0.71826   1.000
    O223    O    0.07263   0.95070   0.49840   1.000
    O224    O    0.57263   0.95070   0.49840   1.000
    O225    O    0.05455   0.83027   0.59288   1.000
    O226    O    0.55455   0.83027   0.59288   1.000
    O227    O    0.13144   0.70960   0.51654   1.000
    O228    O    0.63144   0.70960   0.51654   1.000
    O229    O    0.04036   0.98303   0.73170   1.000
    O230    O    0.54036   0.98303   0.73170   1.000
    O231    O    0.18624   0.35747   0.64379   1.000
    O232    O    0.68624   0.35747   0.64379   1.000
    O233    O    0.07028   0.15086   0.60225   1.000
    O234    O    0.57028   0.15086   0.60225   1.000
    O235    O    0.11035   0.18801   0.48121   1.000
    O236    O    0.61035   0.18801   0.48121   1.000
    O237    O    0.08381   0.94311   0.84227   1.000
    O238    O    0.58381   0.94311   0.84227   1.000
    O239    O    0.32995   0.21639   0.21826   1.000
    O240    O    0.82995   0.21639   0.21826   1.000
    O241    O    0.17736   0.04926   0.99840   1.000
    O242    O    0.67736   0.04926   0.99842   1.000
    O243    O    0.19546   0.16972   0.09287   1.000
    O244    O    0.69546   0.16972   0.09287   1.000
    O245    O    0.11858   0.29038   0.01654   1.000
    O246    O    0.61858   0.29038   0.01650   1.000
    O247    O    0.20964   0.01696   0.23169   1.000
    O248    O    0.70964   0.01696   0.23169   1.000
    O249    O    0.06377   0.64250   0.14370   1.000
    O250    O    0.56377   0.64250   0.14370   1.000
    O251    O    0.17972   0.84910   0.10223   1.000
    O252    O    0.67972   0.84910   0.10223   1.000
    O253    O    0.57994   0.21638   0.28174   1.000
    O254    O    0.42736   0.04927   0.50159   1.000
    O255    O    0.92736   0.04927   0.50159   1.000
    O256    O    0.44546   0.16971   0.40712   1.000
    O257    O    0.94546   0.16971   0.40712   1.000
    O258    O    0.36858   0.29039   0.48347   1.000
    O259    O    0.86857   0.29039   0.48347   1.000
    O260    O    0.45964   0.01693   0.26830   1.000
    O261    O    0.95964   0.01693   0.26830   1.000
    O262    O    0.31377   0.64248   0.35622   1.000
    O263    O    0.81377   0.64248   0.35622   1.000
    O264    O    0.42972   0.84910   0.39775   1.000
    O265    O    0.92972   0.84910   0.39775   1.000
    O266    O    0.38965   0.81194   0.51879   1.000
    O267    O    0.88965   0.81194   0.51879   1.000
    O268    O    0.41620   0.05686   0.15772   1.000
    O269    O    0.91620   0.05686   0.15772   1.000
    O270    O    0.17006   0.78356   0.78174   1.000
    O271    O    0.67005   0.78356   0.78174   1.000
    O272    O    0.32264   0.95071   0.00157   1.000
    O273    O    0.82264   0.95071   0.00157   1.000
    O274    O    0.30455   0.83025   0.90710   1.000
    O275    O    0.80455   0.83025   0.90712   1.000
    O276    O    0.38144   0.70960   0.98347   1.000
    O277    O    0.88144   0.70960   0.98347   1.000
    O278    O    0.29036   0.98301   0.76831   1.000
    O279    O    0.79036   0.98301   0.76831   1.000
    O280    O    0.43624   0.35745   0.85620   1.000
    O281    O    0.93624   0.35745   0.85620   1.000
    O282    O    0.32028   0.15086   0.89777   1.000
    O283    O    0.82028   0.15086   0.89777   1.000
    O284    O    0.36035   0.18801   0.01879   1.000
    O285    O    0.86035   0.18801   0.01879   1.000
    O286    O    0.33379   0.94309   0.65772   1.000
    O287    O    0.83379   0.94309   0.65770   1.000
loop_
    _geom_bond_atom_site_label_1
    _geom_bond_atom_site_label_2
    _geom_bond_distance
    _geom_bond_site_symmetry_2
    _ccdc_geom_bond_type
    O273   C212      1.28573  1_554   S
    O272   C211      1.28572  1_554   S
    C160   O246      1.38551      .   S
    C160   C162      1.39985      .   S
    C160   C164      1.40070  1_554   S
    C159   O245      1.38559      .   S
    C159   C161      1.39985      .   S
    C159   C163      1.40068  1_554   S
    O246   C158      1.42203  1_554   S
    C213   H88       1.10056      .   S
    C213   H90       1.10133      .   S
    C213   C211      1.52613  1_554   S
    C213   O276      1.42229  1_554   S
    C214   H89       1.10054      .   S
    C214   H91       1.10133      .   S
    C214   C212      1.52612  1_554   S
    C214   O277      1.42229  1_554   S
    O245   C157      1.42232  1_554   S
    O285   C206      1.27320  1_554   S
    O284   C205      1.27320  1_554   S
    H33    C148      1.10247      .   S
    H32    C147      1.10198      .   S
    C156   O244      1.26122      .   S
    C156   C158      1.52616  1_554   S
    C156   O242      1.28579  1_554   S
    C155   O243      1.26122      .   S
    C155   C157      1.52617  1_554   S
    C155   O241      1.28593  1_554   S
    C219   C161      1.39699      .   S
    C219   H98       1.08878      .   S
    C219   C215      1.40059  1_554   S
    C220   C162      1.39699      .   S
    C220   H99       1.08877      .   S
    C220   C216      1.40060  1_554   S
    C162   H45       1.09035      .   S
    C161   H44       1.09035      .   S
    C150   C148      1.51936      .   S
    C150   O252      1.26668      .   S
    C150   O125      1.27319  1_554   S
    C149   C147      1.51935      .   S
    C149   O251      1.26669      .   S
    C149   O124      1.27319  1_554   S
    H34    C147      1.10457      .   S
    H35    C148      1.10457      .   S
    H29    C144      1.08634      .   S
    H28    C143      1.08634      .   S
    C148   O250      1.42462      .   S
    C147   O249      1.42462      .   S
    H30    C145      1.08724      .   S
    H31    C146      1.08724      .   S
    C144   C146      1.39470      .   S
    C144   C141      1.40166  1_655   S
    C143   C145      1.39471      .   S
    C143   C142      1.40164      .   S
    C146   C136      1.39082      .   S
    C145   C135      1.39082      .   S
    O249   C141      1.37609      .   S
    O250   C142      1.37609      .   S
    O269   C184      1.27452      .   S
    O268   C183      1.27452      .   S
    C142   C140      1.40439      .   S
    C141   C139      1.40439      .   S
    H61    C182      1.10219      .   S
    H60    C181      1.10219      .   S
    H63    C182      1.09814      .   S
    H62    C181      1.09815      .   S
    H48    C167      1.08936      .   S
    H49    C168      1.08936      .   S
    C135   O239      1.40360      .   S
    C135   C137      1.39894      .   S
    C136   O240      1.40359      .   S
    C136   C138      1.39894      .   S
    C181   C184      1.52125  1_455   S
    C181   O128      1.44862      .   S
    C182   C183      1.52123      .   S
    C182   O253      1.44862      .   S
    C184   O261      1.26373      .   S
    C183   O260      1.26373      .   S
    O239   C151      1.44857      .   S
    O240   C152      1.44857      .   S
    C140   C137      1.39513      .   S
    C140   H27       1.08976      .   S
    C139   C138      1.39514  1_455   S
    C139   H26       1.08975      .   S
    O247   C153      1.26308      .   S
    O248   C154      1.26308      .   S
    H51    C170      1.08963      .   S
    H50    C169      1.08963      .   S
    C168   C170      1.39508      .   S
    C168   C166      1.39870      .   S
    C167   C169      1.39509      .   S
    C167   C165      1.39870      .   S
    C138   H25       1.08493      .   S
    C137   H24       1.08492      .   S
    C170   C172      1.40467      .   S
    C169   C171      1.40467      .   S
    O253   C166      1.40351      .   S
    O128   C165      1.40350      .   S
    C154   C152      1.52128      .   S
    C154   O127      1.27514      .   S
    C153   C151      1.52129      .   S
    C153   O126      1.27404      .   S
    C152   H39       1.09815      .   S
    C152   H37       1.10216      .   S
    C151   H38       1.09814      .   S
    C151   H36       1.10216      .   S
    C166   C176      1.38988      .   S
    C165   C175      1.38988      .   S
    C171   O262      1.37574      .   S
    C171   C173      1.40161      .   S
    C172   O263      1.37574      .   S
    C172   C174      1.40162      .   S
    O263   C178      1.42595      .   S
    O262   C177      1.42595      .   S
    C176   C174      1.39515      .   S
    C176   H55       1.08815      .   S
    C175   C173      1.39515      .   S
    C175   H54       1.08817      .   S
    C174   H53       1.08631      .   S
    C173   H52       1.08632      .   S
    O264   C179      1.26676      .   S
    O265   C180      1.26676      .   S
    O257   C186      1.26136      .   S
    O256   C185      1.26136      .   S
    H68    C191      1.09035      .   S
    H69    C192      1.09035      .   S
    H18    C122      1.10132      .   S
    H19    C123      1.10132      .   S
    H22    C133      1.08875      .   S
    H23    C134      1.08876      .   S
    C177   H58       1.10456      .   S
    C177   C179      1.51935      .   S
    C177   H56       1.10197      .   S
    C178   H59       1.10454      .   S
    C178   C180      1.51934      .   S
    C178   H57       1.10197      .   S
    C180   O267      1.27337      .   S
    C179   O266      1.27337      .   S
    C191   C134      1.39705      .   S
    C191   C189      1.40021      .   S
    C192   C133      1.39706      .   S
    C192   C190      1.40022      .   S
    C134   C130      1.40096      .   S
    C133   C129      1.40097  1_655   S
    C186   O255      1.28590      .   S
    C186   C188      1.52599      .   S
    C185   O254      1.28590      .   S
    C185   C187      1.52599      .   S
    O236   C115      1.27337      .   S
    O235   C114      1.27337      .   S
    H17    C123      1.10058      .   S
    H16    C122      1.10057      .   S
    O259   C190      1.38557      .   S
    O259   C188      1.42223      .   S
    O258   C189      1.38558      .   S
    O258   C187      1.42223      .   S
    C123   O228      1.42244      .   S
    C123   C121      1.52624      .   S
    C122   O227      1.42244      .   S
    C122   C120      1.52624      .   S
    C189   C193      1.40072      .   S
    C190   C194      1.35478  1_655   S
    O223   C120      1.28589      .   S
    O224   C121      1.28591      .   S
    C130   O228      1.38558      .   S
    C130   C132      1.40011      .   S
    C129   O227      1.38558      .   S
    C129   C131      1.40011      .   S
    C188   H65       1.10056      .   S
    C188   H67       1.10067      .   S
    C187   H64       1.10058      .   S
    C187   H66       1.10067      .   S
    H8     C112      1.10120      .   S
    H9     C113      1.10119      .   S
    C121   O226      1.26132      .   S
    C120   O225      1.26132      .   S
    C193   C132      1.39707      .   S
    C193   H70       1.08886      .   S
    C194   C131      1.42201      .   S
    C194   H71       1.06075      .   S
    C132   H21       1.09001      .   S
    C131   H20       1.09000      .   S
    C114   C112      1.51910      .   S
    C114   O233      1.26677      .   S
    C115   C113      1.51911      .   S
    C115   O234      1.26677      .   S
    H10    C112      1.10439      .   S
    H11    C113      1.10440      .   S
    H4     C108      1.08646      .   S
    H5     C109      1.08646      .   S
    C112   O231      1.42705      .   S
    C113   O232      1.42705      .   S
    H7     C111      1.08731      .   S
    H6     C110      1.08733      .   S
    C109   C111      1.39471      .   S
    C109   C107      1.40160      .   S
    C108   C110      1.39471      .   S
    C108   C106      1.40160      .   S
    C111   C101      1.39079      .   S
    C110   C100      1.39079      .   S
    O231   C106      1.37575      .   S
    O232   C107      1.37576      .   S
    O287   C210      1.27485      .   S
    O286   C209      1.27458      .   S
    C106   C104      1.40468      .   S
    C107   C105      1.40468      .   S
    H85    C208      1.10204      .   S
    H84    C207      1.10204      .   S
    H86    C207      1.09809      .   S
    H87    C208      1.09810      .   S
    H73    C198      1.08939      .   S
    H72    C197      1.08938      .   S
    C101   O222      1.40356      .   S
    C101   C103      1.39892      .   S
    C100   O221      1.40337      .   S
    C100   C102      1.39892      .   S
    C207   C209      1.52126      .   S
    C207   O270      1.44873      .   S
    C208   C210      1.52125      .   S
    C208   O271      1.44873      .   S
    C209   O278      1.26363      .   S
    C210   O279      1.26364      .   S
    O221   C116      1.44964      .   S
    O222   C117      1.44866      .   S
    C104   C102      1.39504      .   S
    C104   H2        1.08952      .   S
    C105   C103      1.39504      .   S
    C105   H3        1.08952      .   S
    O230   C119      1.26359      .   S
    O229   C118      1.26359      .   S
    H75    C92       1.08965      .   S
    H74    C199      1.08966      .   S
    C197   C92       1.39509  1_455   S
    C197   C195      1.39895      .   S
    C198   C199      1.39508      .   S
    C198   C196      1.39895      .   S
    C102   H0        1.08937      .   S
    C103   H1        1.08937      .   S
    C92    C94       1.40455      .   S
    C199   C93       1.39540      .   S
    O271   C196      1.40358      .   S
    O270   C195      1.40358      .   S
    C119   C116      1.52124      .   S
    C119   O238      1.27461      .   S
    C118   C117      1.52126  1_455   S
    C118   O237      1.27460      .   S
    C116   H14       1.09815      .   S
    C116   H12       1.10216      .   S
    C117   H15       1.09815      .   S
    C117   H13       1.10216      .   S
    C195   C201      1.39080      .   S
    C196   C202      1.39081      .   S
    C93    O280      1.37825      .   S
    C93    C200      1.40775      .   S
    C94    O281      1.37567      .   S
    C94    C95       1.40164  1_655   S
    O281   C204      1.42556      .   S
    O280   C203      1.42639      .   S
    C202   C200      1.39471      .   S
    C202   H79       1.08733      .   S
    C201   C95       1.39471      .   S
    C201   H78       1.08735      .   S
    C200   H77       1.08558      .   S
    C95    H76       1.08557      .   S
    O283   C206      1.26665      .   S
    O282   C205      1.26665      .   S
    O274   C211      1.26171      .   S
    O275   C212      1.26139      .   S
    H96    C217      1.09000      .   S
    H97    C218      1.09001      .   S
    H42    C157      1.10134      .   S
    H43    C158      1.10134      .   S
    H47    C164      1.08877      .   S
    H46    C163      1.08877      .   S
    C204   H83       1.10467      .   S
    C204   C206      1.51953      .   S
    C204   H81       1.10251      .   S
    C203   H82       1.10454      .   S
    C203   C205      1.51933      .   S
    C203   H80       1.10190      .   S
    C218   C164      1.39704      .   S
    C218   C216      1.40021      .   S
    C217   C163      1.39704      .   S
    C217   C215      1.40023      .   S
    H40    C157      1.10059      .   S
    H41    C158      1.10055      .   S
    O277   C216      1.38560      .   S
    O276   C215      1.38560      .   S
