# CIF file generated by openbabel 2.4.90, see http://openbabel.sf.net
data_I
_chemical_name_common ''
_cell_length_a 17.434
_cell_length_b 12.841
_cell_length_c 17.875
_cell_angle_alpha 90.002
_cell_angle_beta 89.998
_cell_angle_gamma 112.94
_space_group_name_H-M_alt 'P 1'
_space_group_name_Hall 'P 1'
loop_
    _symmetry_equiv_pos_as_xyz
    x,y,z
loop_
    _atom_site_label
    _atom_site_type_symbol
    _atom_site_fract_x
    _atom_site_fract_y
    _atom_site_fract_z
    _atom_site_occupancy
    N0      N    0.81730   0.56484   0.67903   1.000
    N1      N    0.31730   0.56484   0.67903   1.000
    N2      N    0.18271   0.43512   0.32096   1.000
    N3      N    0.68271   0.43512   0.32096   1.000
    N4      N    0.43271   0.43513   0.17901   1.000
    N5      N    0.93271   0.43513   0.17901   1.000
    N6      N    0.25001   0.49999   0.99999   1.000
    N7      N    0.75001   0.49999   1.00000   1.000
    N8      N    0.99953   0.49999   0.50000   1.000
    N9      N    0.50001   0.49999   0.49999   1.000
    N10     N    0.06729   0.56483   0.82097   1.000
    N11     N    0.56729   0.56482   0.82094   1.000
    Zr12    Zr   0.03305   0.04591   0.38897   1.000
    O13     O    0.11377   0.19340   0.47302   1.000
    O14     O    0.93254   0.11861   0.37307   1.000
    O15     O    0.02962   0.89753   0.43041   1.000
    O16     O    0.14961   0.14458   0.33063   1.000
    Zr17    Zr   0.78305   0.04591   0.11102   1.000
    O18     O    0.86377   0.19340   0.02698   1.000
    O19     O    0.89961   0.14458   0.16934   1.000
    O20     O    0.77973   0.89753   0.06958   1.000
    O21     O    0.68255   0.11861   0.12692   1.000
    Zr22    Zr   0.46695   0.95406   0.61103   1.000
    O23     O    0.35039   0.85538   0.66935   1.000
    O24     O    0.47027   0.10244   0.56959   1.000
    O25     O    0.38623   0.80656   0.52698   1.000
    O26     O    0.56745   0.88135   0.62693   1.000
    Zr27    Zr   0.28305   0.04591   0.11100   1.000
    O28     O    0.18255   0.11861   0.12691   1.000
    O29     O    0.39961   0.14458   0.16933   1.000
    O30     O    0.27974   0.89753   0.06957   1.000
    O31     O    0.36377   0.19340   0.02696   1.000
    Zr32    Zr   0.71696   0.95405   0.88898   1.000
    O33     O    0.60040   0.85538   0.83065   1.000
    O34     O    0.81746   0.88135   0.87308   1.000
    O35     O    0.72027   0.10244   0.93041   1.000
    O36     O    0.63623   0.80656   0.97302   1.000
    Zr37    Zr   0.53304   0.04591   0.38897   1.000
    O38     O    0.52973   0.89753   0.43040   1.000
    O39     O    0.64961   0.14458   0.33064   1.000
    O40     O    0.43254   0.11861   0.37307   1.000
    O41     O    0.61377   0.19340   0.47302   1.000
    Zr42    Zr   0.21696   0.95405   0.88898   1.000
    O43     O    0.13623   0.80656   0.97302   1.000
    O44     O    0.22027   0.10244   0.93041   1.000
    O45     O    0.31746   0.88135   0.87307   1.000
    O46     O    0.10040   0.85538   0.83065   1.000
    Zr47    Zr   0.96695   0.95406   0.61103   1.000
    O48     O    0.97015   0.10244   0.56959   1.000
    O49     O    0.88623   0.80656   0.52698   1.000
    O50     O    0.85039   0.85538   0.66934   1.000
    O51     O    0.06745   0.88135   0.62693   1.000
    O52     O    0.48730   0.83259   0.57510   1.000
    O53     O    0.51271   0.16737   0.42490   1.000
    O54     O    0.81881   0.15206   0.14226   1.000
    O55     O    0.18120   0.84790   0.85773   1.000
    O56     O    0.23730   0.83259   0.92490   1.000
    O57     O    0.43120   0.84791   0.64227   1.000
    O58     O    0.26271   0.16738   0.07508   1.000
    O59     O    0.31881   0.15206   0.14225   1.000
    O60     O    0.76271   0.16738   0.07509   1.000
    O61     O    0.06880   0.15205   0.35772   1.000
    O62     O    0.56880   0.15205   0.35772   1.000
    O63     O    0.73730   0.83259   0.92490   1.000
    O64     O    0.68120   0.84790   0.85773   1.000
    O65     O    0.98718   0.83259   0.57510   1.000
    O66     O    0.93119   0.84791   0.64227   1.000
    O67     O    0.01259   0.16737   0.42490   1.000
loop_
    _geom_bond_atom_site_label_1
    _geom_bond_atom_site_label_2
    _geom_bond_distance
    _geom_bond_site_symmetry_2
    _ccdc_geom_bond_type
    Zr12   O13       2.39727      .   S
    N1     O13       5.97556      .   S
    Zr12   O14       2.30164  1_455   S
    N3     O14       7.08228      .   S
    Zr12   O15       2.02330  1_545   S
    N8     O15       5.07879  1_655   S
    Zr12   O16       2.19436      .   S
    N4     O16       5.59205      .   S
    Zr17   O18       2.39723      .   S
    N10    O18       5.97548  1_456   S
    Zr17   O19       2.19422      .   S
    N2     O19       5.59198  1_455   S
    Zr17   O20       2.02397  1_545   S
    N7     O20       5.08053  1_556   S
    Zr17   O21       2.30161      .   S
    N4     O21       7.08221      .   S
    Zr22   O23       2.19421      .   S
    N10    O23       5.59195      .   S
    Zr22   O24       2.02406  1_565   S
    N9     O24       5.08072      .   S
    Zr22   O25       2.39730      .   S
    N2     O25       5.97563      .   S
    Zr22   O26       2.30166      .   S
    N0     O26       7.08236      .   S
    Zr27   O28       2.30163      .   S
    N5     O28       7.08226  1_655   S
    Zr27   O29       2.19428      .   S
    N3     O29       5.59208      .   S
    Zr27   O30       2.02392  1_545   S
    N6     O30       5.08048  1_556   S
    Zr27   O31       2.39721      .   S
    N11    O31       5.97552  1_556   S
    Zr32   O33       2.19423      .   S
    N1     O33       5.59202      .   S
    Zr32   O34       2.30163      .   S
    N10    O34       7.08231  1_455   S
    Zr32   O35       2.02401  1_565   S
    N7     O35       5.08065      .   S
    Zr32   O36       2.39716      .   S
    N4     O36       5.97525  1_554   S
    Zr37   O38       2.02401  1_545   S
    N9     O38       5.08059      .   S
    Zr37   O39       2.19427      .   S
    N5     O39       5.59211      .   S
    Zr37   O40       2.30163      .   S
    N2     O40       7.08228      .   S
    Zr37   O41       2.39728      .   S
    N0     O41       5.97558      .   S
    Zr42   O43       2.39718      .   S
    N5     O43       5.97529  1_654   S
    Zr42   O44       2.02399  1_565   S
    N6     O44       5.08065      .   S
    Zr42   O45       2.30164      .   S
    N11    O45       7.08235      .   S
    Zr42   O46       2.19423      .   S
    N0     O46       5.59201  1_655   S
    Zr47   O48       2.02476  1_565   S
    N8     O48       5.08252      .   S
    Zr47   O49       2.39730      .   S
    N3     O49       5.97563      .   S
    Zr47   O50       2.19414      .   S
    N11    O50       5.59181      .   S
    Zr47   O51       2.30167  1_655   S
    N1     O51       7.08237      .   S
    N9     O52       4.56398      .   S
    Zr22   O52       1.84451      .   S
    N9     O53       4.56399      .   S
    Zr37   O53       1.84450      .   S
    N5     O54       3.45843      .   S
    Zr17   O54       1.37699      .   S
    Zr42   O55       1.37704      .   S
    N10    O55       3.45850      .   S
    Zr42   O56       1.84446      .   S
    N6     O56       4.56394      .   S
    Zr22   O57       1.37696      .   S
    N1     O57       3.45845      .   S
    Zr27   O58       1.84450      .   S
    N6     O58       4.56401  1_556   S
    Zr27   O59       1.37703      .   S
    N4     O59       3.45846      .   S
    Zr17   O60       1.84453      .   S
    N7     O60       4.56409  1_556   S
    N2     O61       3.45843      .   S
    Zr12   O61       1.37699      .   S
    N3     O62       3.45843      .   S
    Zr37   O62       1.37699      .   S
    Zr32   O63       1.84447      .   S
    N7     O63       4.56393      .   S
    Zr32   O64       1.37708      .   S
    N11    O64       3.45856      .   S
    Zr47   O65       1.84342      .   S
    N8     O65       4.56140      .   S
    Zr47   O66       1.37700      .   S
    N0     O66       3.45845      .   S
    Zr12   O67       1.84559      .   S
    N8     O67       4.56658  1_655   S
