# CIF file generated by openbabel 2.4.90, see http://openbabel.sf.net
data_I
_chemical_name_common ''
_cell_length_a 17.434
_cell_length_b 12.841
_cell_length_c 17.875
_cell_angle_alpha 90.002
_cell_angle_beta 89.998
_cell_angle_gamma 112.94
_space_group_name_H-M_alt 'P 1'
_space_group_name_Hall 'P 1'
loop_
    _symmetry_equiv_pos_as_xyz
    x,y,z
loop_
    _atom_site_label
    _atom_site_type_symbol
    _atom_site_fract_x
    _atom_site_fract_y
    _atom_site_fract_z
    _atom_site_occupancy
    N0      N    0.81730   0.56484   0.67903   1.000
    N1      N    0.31730   0.56484   0.67903   1.000
    N2      N    0.18271   0.43512   0.32096   1.000
    N3      N    0.68271   0.43512   0.32096   1.000
    N4      N    0.43271   0.43513   0.17901   1.000
    N5      N    0.93271   0.43513   0.17901   1.000
    N6      N    0.25001   0.49999   0.99999   1.000
    N7      N    0.75001   0.49999   1.00000   1.000
    N8      N    0.99953   0.49999   0.50000   1.000
    N9      N    0.50001   0.49999   0.49999   1.000
    N10     N    0.06729   0.56483   0.82097   1.000
    N11     N    0.56729   0.56482   0.82094   1.000
    Zr12    Zr   0.03305   0.04591   0.38897   1.000
    O13     O    0.01372   0.17490   0.41900   1.000
    O14     O    0.01146   0.15985   0.43080   1.000
    O15     O    0.11377   0.19340   0.47302   1.000
    O16     O    0.07632   0.16452   0.35856   1.000
    O17     O    0.06129   0.13959   0.35688   1.000
    O18     O    0.93254   0.11861   0.37307   1.000
    O19     O    0.02962   0.89753   0.43041   1.000
    O20     O    0.14961   0.14458   0.33063   1.000
    Zr21    Zr   0.78305   0.04591   0.11102   1.000
    O22     O    0.86377   0.19340   0.02698   1.000
    O23     O    0.81129   0.13960   0.14310   1.000
    O24     O    0.82632   0.16452   0.14142   1.000
    O25     O    0.89961   0.14458   0.16934   1.000
    O26     O    0.76384   0.17490   0.08100   1.000
    O27     O    0.76158   0.15985   0.06919   1.000
    O28     O    0.77973   0.89753   0.06958   1.000
    O29     O    0.68255   0.11861   0.12692   1.000
    Zr30    Zr   0.46695   0.95406   0.61103   1.000
    O31     O    0.35039   0.85538   0.66935   1.000
    O32     O    0.48843   0.84012   0.56919   1.000
    O33     O    0.42368   0.83544   0.64143   1.000
    O34     O    0.43871   0.86037   0.64311   1.000
    O35     O    0.47027   0.10244   0.56959   1.000
    O36     O    0.38623   0.80656   0.52698   1.000
    O37     O    0.56745   0.88135   0.62693   1.000
    O38     O    0.48617   0.82507   0.58100   1.000
    Zr39    Zr   0.28305   0.04591   0.11100   1.000
    O40     O    0.18255   0.11861   0.12691   1.000
    O41     O    0.26384   0.17490   0.08098   1.000
    O42     O    0.39961   0.14458   0.16933   1.000
    O43     O    0.27974   0.89753   0.06957   1.000
    O44     O    0.26158   0.15985   0.06917   1.000
    O45     O    0.31129   0.13960   0.14309   1.000
    O46     O    0.32633   0.16452   0.14141   1.000
    O47     O    0.36377   0.19340   0.02696   1.000
    Zr48    Zr   0.71696   0.95405   0.88898   1.000
    O49     O    0.60040   0.85538   0.83065   1.000
    O50     O    0.81746   0.88135   0.87308   1.000
    O51     O    0.72027   0.10244   0.93041   1.000
    O52     O    0.73617   0.82506   0.91900   1.000
    O53     O    0.73843   0.84012   0.93081   1.000
    O54     O    0.67368   0.83543   0.85857   1.000
    O55     O    0.63623   0.80656   0.97302   1.000
    O56     O    0.68872   0.86036   0.85689   1.000
    Zr57    Zr   0.53304   0.04591   0.38897   1.000
    O58     O    0.51384   0.17490   0.41899   1.000
    O59     O    0.52973   0.89753   0.43040   1.000
    O60     O    0.64961   0.14458   0.33064   1.000
    O61     O    0.57632   0.16452   0.35856   1.000
    O62     O    0.56128   0.13959   0.35688   1.000
    O63     O    0.43254   0.11861   0.37307   1.000
    O64     O    0.51158   0.15985   0.43080   1.000
    O65     O    0.61377   0.19340   0.47302   1.000
    Zr66    Zr   0.21696   0.95405   0.88898   1.000
    O67     O    0.18872   0.86036   0.85689   1.000
    O68     O    0.13623   0.80656   0.97302   1.000
    O69     O    0.17368   0.83543   0.85857   1.000
    O70     O    0.23617   0.82506   0.91900   1.000
    O71     O    0.23843   0.84012   0.93081   1.000
    O72     O    0.22027   0.10244   0.93041   1.000
    O73     O    0.31746   0.88135   0.87307   1.000
    O74     O    0.10040   0.85538   0.83065   1.000
    Zr75    Zr   0.96695   0.95406   0.61103   1.000
    O76     O    0.97015   0.10244   0.56959   1.000
    O77     O    0.88623   0.80656   0.52698   1.000
    O78     O    0.85039   0.85538   0.66934   1.000
    O79     O    0.06745   0.88135   0.62693   1.000
    O80     O    0.98605   0.82507   0.58100   1.000
    O81     O    0.98831   0.84012   0.56919   1.000
    O82     O    0.93871   0.86037   0.64311   1.000
    O83     O    0.92368   0.83544   0.64143   1.000
loop_
    _geom_bond_atom_site_label_1
    _geom_bond_atom_site_label_2
    _geom_bond_distance
    _geom_bond_site_symmetry_2
    _ccdc_geom_bond_type
    Zr12   O13       1.89221      .   S
    N8     O13       4.51532  1_655   S
    Zr12   O14       1.80852      .   S
    N8     O14       4.62147  1_655   S
    Zr12   O15       2.39727      .   S
    N1     O15       5.97556      .   S
    Zr12   O16       1.51285      .   S
    N2     O16       3.30789      .   S
    Zr12   O17       1.24773      .   S
    N2     O17       3.61009      .   S
    Zr12   O18       2.30164  1_455   S
    N3     O18       7.08228      .   S
    Zr12   O19       2.02330  1_545   S
    N8     O19       5.07879  1_655   S
    Zr12   O20       2.19436      .   S
    N4     O20       5.59205      .   S
    Zr21   O22       2.39723      .   S
    N10    O22       5.97548  1_456   S
    Zr21   O23       1.24772      .   S
    N5     O23       3.61009      .   S
    Zr21   O24       1.51286      .   S
    N5     O24       3.30788      .   S
    Zr21   O25       2.19422      .   S
    N2     O25       5.59198  1_455   S
    Zr21   O26       1.89116      .   S
    N7     O26       4.51281  1_556   S
    Zr21   O27       1.80746      .   S
    N7     O27       4.61899  1_556   S
    Zr21   O28       2.02397  1_545   S
    N7     O28       5.08053  1_556   S
    Zr21   O29       2.30161      .   S
    N4     O29       7.08221      .   S
    Zr30   O31       2.19421      .   S
    N10    O31       5.59195      .   S
    Zr30   O32       1.80745      .   S
    N9     O32       4.61886      .   S
    Zr30   O33       1.51281      .   S
    N1     O33       3.30792      .   S
    Zr30   O34       1.24773      .   S
    N1     O34       3.61010      .   S
    Zr30   O35       2.02406  1_565   S
    N9     O35       5.08072      .   S
    Zr30   O36       2.39730      .   S
    N2     O36       5.97563      .   S
    Zr30   O37       2.30166      .   S
    N0     O37       7.08236      .   S
    Zr30   O38       1.89111      .   S
    N9     O38       4.51273      .   S
    Zr39   O40       2.30163      .   S
    N5     O40       7.08226  1_655   S
    Zr39   O41       1.89112      .   S
    N6     O41       4.51274  1_556   S
    Zr39   O42       2.19428      .   S
    N3     O42       5.59208      .   S
    Zr39   O43       2.02392  1_545   S
    N6     O43       5.08048  1_556   S
    Zr39   O44       1.80742      .   S
    N6     O44       4.61892  1_556   S
    Zr39   O45       1.24777      .   S
    N4     O45       3.61012      .   S
    Zr39   O46       1.51290      .   S
    N4     O46       3.30792      .   S
    Zr39   O47       2.39721      .   S
    N11    O47       5.97552  1_556   S
    Zr48   O49       2.19423      .   S
    N1     O49       5.59202      .   S
    Zr48   O50       2.30163      .   S
    N10    O50       7.08231  1_455   S
    Zr48   O51       2.02401  1_565   S
    N7     O51       5.08065      .   S
    Zr48   O52       1.89110      .   S
    N7     O52       4.51265      .   S
    Zr48   O53       1.80738      .   S
    N7     O53       4.61884      .   S
    Zr48   O54       1.51294      .   S
    N11    O54       3.30802      .   S
    Zr48   O55       2.39716      .   S
    N4     O55       5.97525  1_554   S
    Zr48   O56       1.24782      .   S
    N11    O56       3.61021      .   S
    Zr57   O58       1.89112      .   S
    N9     O58       4.51272      .   S
    Zr57   O59       2.02401  1_545   S
    N9     O59       5.08059      .   S
    Zr57   O60       2.19427      .   S
    N5     O60       5.59211      .   S
    Zr57   O61       1.51285      .   S
    N3     O61       3.30789      .   S
    Zr57   O62       1.24772      .   S
    N3     O62       3.61008      .   S
    Zr57   O63       2.30163      .   S
    N2     O63       7.08228      .   S
    Zr57   O64       1.80743      .   S
    N9     O64       4.61889      .   S
    Zr57   O65       2.39728      .   S
    N0     O65       5.97558      .   S
    Zr66   O67       1.24777      .   S
    N10    O67       3.61015      .   S
    Zr66   O68       2.39718      .   S
    N5     O68       5.97529  1_654   S
    Zr66   O69       1.51290      .   S
    N10    O69       3.30795      .   S
    Zr66   O70       1.89109      .   S
    N6     O70       4.51267      .   S
    Zr66   O71       1.80738      .   S
    N6     O71       4.61884      .   S
    Zr66   O72       2.02399  1_565   S
    N6     O72       5.08065      .   S
    Zr66   O73       2.30164      .   S
    N11    O73       7.08235      .   S
    Zr66   O74       2.19423      .   S
    N0     O74       5.59201  1_655   S
    Zr75   O76       2.02476  1_565   S
    N8     O76       5.08252      .   S
    Zr75   O77       2.39730      .   S
    N3     O77       5.97563      .   S
    Zr75   O78       2.19414      .   S
    N11    O78       5.59181      .   S
    Zr75   O79       2.30167  1_655   S
    N1     O79       7.08237      .   S
    Zr75   O80       1.89003      .   S
    N8     O80       4.51015      .   S
    Zr75   O81       1.80637      .   S
    N8     O81       4.61629      .   S
    Zr75   O82       1.24773      .   S
    N0     O82       3.61010      .   S
    Zr75   O83       1.51286      .   S
    N0     O83       3.30790      .   S
