# CIF file generated by openbabel 2.4.90, see http://openbabel.sf.net
data_I
_chemical_name_common ''
_cell_length_a 15.75
_cell_length_b 15.748
_cell_length_c 16.414
_cell_angle_alpha 89.999
_cell_angle_beta 89.999
_cell_angle_gamma 119.966
_space_group_name_H-M_alt 'P 1'
_space_group_name_Hall 'P 1'
loop_
    _symmetry_equiv_pos_as_xyz
    x,y,z
loop_
    _atom_site_label
    _atom_site_type_symbol
    _atom_site_fract_x
    _atom_site_fract_y
    _atom_site_fract_z
    _atom_site_occupancy
    N0      N    0.02873   0.53704   0.79595   1.000
    N1      N    0.46294   0.49168   0.79595   1.000
    N2      N    0.97123   0.46297   0.20405   1.000
    N3      N    0.49169   0.02874   0.20402   1.000
    N4      N    0.53702   0.50828   0.20405   1.000
    N5      N    0.50825   0.97123   0.79595   1.000
    Zr6     Zr   0.84656   0.26498   0.26760   1.000
    O7      O    0.89991   0.33640   0.41502   1.000
    O8      O    0.88519   0.33440   0.24364   1.000
    O9      O    0.73590   0.20131   0.24952   1.000
    O10     O    0.75818   0.17796   0.13767   1.000
    Zr11    Zr   0.26502   0.41842   0.73230   1.000
    O12     O    0.33442   0.44919   0.75630   1.000
    O13     O    0.17800   0.41977   0.86227   1.000
    O14     O    0.33642   0.43648   0.58492   1.000
    O15     O    0.20134   0.46541   0.75041   1.000
    Zr16    Zr   0.58157   0.84659   0.73236   1.000
    O17     O    0.53457   0.73592   0.75045   1.000
    O18     O    0.56351   0.89993   0.58495   1.000
    O19     O    0.58022   0.75822   0.86230   1.000
    O20     O    0.55078   0.88521   0.75634   1.000
    Zr21    Zr   0.33331   0.66670   0.83031   1.000
    Zr22    Zr   0.15334   0.73501   0.73200   1.000
    O23     O    0.24173   0.82203   0.86208   1.000
    O24     O    0.10001   0.66360   0.58473   1.000
    O25     O    0.26402   0.79868   0.75023   1.000
    O26     O    0.11474   0.66560   0.75611   1.000
    Zr27    Zr   0.41839   0.15338   0.26762   1.000
    O28     O    0.44917   0.11476   0.24364   1.000
    O29     O    0.41973   0.24174   0.13768   1.000
    O30     O    0.46538   0.26405   0.24954   1.000
    O31     O    0.43644   0.10003   0.41503   1.000
    Zr32    Zr   0.73493   0.58158   0.26759   1.000
    O33     O    0.66354   0.56352   0.41501   1.000
    O34     O    0.82197   0.58024   0.13766   1.000
    O35     O    0.79862   0.53459   0.24952   1.000
    O36     O    0.66555   0.55080   0.24364   1.000
    Zr37    Zr   0.66661   0.33325   0.16969   1.000
    O38     O    0.24314   0.62546   0.82125   1.000
    O39     O    0.37453   0.61772   0.82126   1.000
    O40     O    0.38227   0.75686   0.82126   1.000
    O41     O    0.75680   0.37451   0.17875   1.000
    O42     O    0.61767   0.24310   0.17873   1.000
    O43     O    0.62540   0.38223   0.17874   1.000
loop_
    _geom_bond_atom_site_label_1
    _geom_bond_atom_site_label_2
    _geom_bond_distance
    _geom_bond_site_symmetry_2
    _ccdc_geom_bond_type
    Zr6    O7        2.62342      .   S
    N0     O7        6.84048  1_455   S
    Zr6    O8        1.02740      .   S
    N2     O8        1.90186      .   S
    Zr6    O9        1.54455      .   S
    N3     O9        3.50640      .   S
    Zr6    O10       2.54140      .   S
    N5     O10       6.68983  1_566   S
    Zr11   O12       1.02735      .   S
    N1     O12       1.90156      .   S
    Zr11   O13       2.54147      .   S
    N2     O13       6.68968  1_654   S
    Zr11   O14       2.62255      .   S
    N4     O14       6.83918      .   S
    Zr11   O15       1.54383      .   S
    N0     O15       3.50503      .   S
    Zr16   O17       1.54433      .   S
    N1     O17       3.50558      .   S
    Zr16   O18       2.62291      .   S
    N3     O18       6.83961  1_545   S
    Zr16   O19       2.54096      .   S
    N4     O19       6.68915  1_554   S
    Zr16   O20       1.02686      .   S
    N5     O20       1.90082      .   S
    Zr22   O23       2.54342      .   S
    N3     O23       6.69306  1_544   S
    Zr22   O24       2.62108      .   S
    N2     O24       6.83670  1_655   S
    Zr22   O25       1.54515      .   S
    N5     O25       3.50738      .   S
    Zr22   O26       1.02819      .   S
    N0     O26       1.90308      .   S
    Zr27   O28       1.02681      .   S
    N3     O28       1.90069      .   S
    Zr27   O29       2.54089      .   S
    N1     O29       6.68888  1_556   S
    Zr27   O30       1.54423      .   S
    N4     O30       3.50550      .   S
    Zr27   O31       2.62286      .   S
    N5     O31       6.83947  1_565   S
    Zr32   O33       2.62316      .   S
    N1     O33       6.84017      .   S
    Zr32   O34       2.54096      .   S
    N0     O34       6.68879  1_456   S
    Zr32   O35       1.54378      .   S
    N2     O35       3.50481      .   S
    Zr32   O36       1.02699      .   S
    N4     O36       1.90113      .   S
    Zr21   O38       1.24080      .   S
    N0     O38       2.96944      .   S
    Zr21   O39       1.24040      .   S
    N1     O39       2.96853      .   S
    Zr21   O40       1.24054      .   S
    N5     O40       2.96888      .   S
    N2     O41       2.96971      .   S
    Zr37   O41       1.24101      .   S
    N3     O42       2.96869      .   S
    Zr37   O42       1.24041      .   S
    N4     O43       2.96837      .   S
    Zr37   O43       1.24031      .   S
