# CIF file generated by openbabel 2.4.90, see http://openbabel.sf.net
data_I
_chemical_name_common ''
_cell_length_a 15.75
_cell_length_b 15.748
_cell_length_c 16.414
_cell_angle_alpha 89.999
_cell_angle_beta 89.999
_cell_angle_gamma 119.966
_space_group_name_H-M_alt 'P 1'
_space_group_name_Hall 'P 1'
loop_
    _symmetry_equiv_pos_as_xyz
    x,y,z
loop_
    _atom_site_label
    _atom_site_type_symbol
    _atom_site_fract_x
    _atom_site_fract_y
    _atom_site_fract_z
    _atom_site_occupancy
    N0      N    0.02873   0.53704   0.79595   1.000
    N1      N    0.46294   0.49168   0.79595   1.000
    N2      N    0.97123   0.46297   0.20405   1.000
    N3      N    0.49169   0.02874   0.20402   1.000
    N4      N    0.53702   0.50828   0.20405   1.000
    N5      N    0.50825   0.97123   0.79595   1.000
    Zr6     Zr   0.84656   0.26498   0.26760   1.000
    O7      O    0.89991   0.33640   0.41502   1.000
    O8      O    0.88519   0.33440   0.24364   1.000
    O9      O    0.73590   0.20131   0.24952   1.000
    O10     O    0.75818   0.17796   0.13767   1.000
    Zr11    Zr   0.26502   0.41842   0.73230   1.000
    O12     O    0.33442   0.44919   0.75630   1.000
    O13     O    0.17800   0.41977   0.86227   1.000
    O14     O    0.33642   0.43648   0.58492   1.000
    O15     O    0.20134   0.46541   0.75041   1.000
    Zr16    Zr   0.58157   0.84659   0.73236   1.000
    O17     O    0.53457   0.73592   0.75045   1.000
    O18     O    0.56351   0.89993   0.58495   1.000
    O19     O    0.58022   0.75822   0.86230   1.000
    O20     O    0.55078   0.88521   0.75634   1.000
    Zr21    Zr   0.33331   0.66670   0.83031   1.000
    O22     O    0.36965   0.61196   0.83084   1.000
    O23     O    0.37941   0.62348   0.81167   1.000
    O24     O    0.37650   0.75598   0.81167   1.000
    O25     O    0.38803   0.75774   0.83084   1.000
    O26     O    0.24226   0.63034   0.83084   1.000
    O27     O    0.24402   0.62058   0.81166   1.000
    Zr28    Zr   0.15334   0.73501   0.73200   1.000
    O29     O    0.24173   0.82203   0.86208   1.000
    O30     O    0.10001   0.66360   0.58473   1.000
    O31     O    0.26402   0.79868   0.75023   1.000
    O32     O    0.11474   0.66560   0.75611   1.000
    Zr33    Zr   0.41839   0.15338   0.26762   1.000
    O34     O    0.44917   0.11476   0.24364   1.000
    O35     O    0.41973   0.24174   0.13768   1.000
    O36     O    0.46538   0.26405   0.24954   1.000
    O37     O    0.43644   0.10003   0.41503   1.000
    Zr38    Zr   0.73493   0.58158   0.26759   1.000
    O39     O    0.66354   0.56352   0.41501   1.000
    O40     O    0.82197   0.58024   0.13766   1.000
    O41     O    0.79862   0.53459   0.24952   1.000
    O42     O    0.66555   0.55080   0.24364   1.000
    Zr43    Zr   0.66661   0.33325   0.16969   1.000
    O44     O    0.62343   0.24398   0.18832   1.000
    O45     O    0.75768   0.36963   0.16916   1.000
    O46     O    0.75592   0.37939   0.18834   1.000
    O47     O    0.61190   0.24221   0.16914   1.000
    O48     O    0.63028   0.38799   0.16915   1.000
    O49     O    0.62052   0.37647   0.18833   1.000
loop_
    _geom_bond_atom_site_label_1
    _geom_bond_atom_site_label_2
    _geom_bond_distance
    _geom_bond_site_symmetry_2
    _ccdc_geom_bond_type
    Zr6    O7        2.62342      .   S
    N0     O7        6.84048  1_455   S
    Zr6    O8        1.02740      .   S
    N2     O8        1.90186      .   S
    Zr6    O9        1.54455      .   S
    N3     O9        3.50640      .   S
    Zr6    O10       2.54140      .   S
    N5     O10       6.68983  1_566   S
    Zr11   O12       1.02735      .   S
    N1     O12       1.90156      .   S
    Zr11   O13       2.54147      .   S
    N2     O13       6.68968  1_654   S
    Zr11   O14       2.62255      .   S
    N4     O14       6.83918      .   S
    Zr11   O15       1.54383      .   S
    N0     O15       3.50503      .   S
    Zr16   O17       1.54433      .   S
    N1     O17       3.50558      .   S
    Zr16   O18       2.62291      .   S
    N3     O18       6.83961  1_545   S
    Zr16   O19       2.54096      .   S
    N4     O19       6.68915  1_554   S
    Zr16   O20       1.02686      .   S
    N5     O20       1.90082      .   S
    Zr21   O22       1.25041      .   S
    N1     O22       2.97573      .   S
    Zr21   O23       1.25601      .   S
    N1     O23       2.97208      .   S
    Zr21   O24       1.25609      .   S
    N5     O24       2.97248      .   S
    Zr21   O25       1.25060      .   S
    N5     O25       2.97603      .   S
    Zr21   O26       1.25075      .   S
    N0     O26       2.97669      .   S
    Zr21   O27       1.25647      .   S
    N0     O27       2.97294      .   S
    Zr28   O29       2.54342      .   S
    N3     O29       6.69306  1_544   S
    Zr28   O30       2.62108      .   S
    N2     O30       6.83670  1_655   S
    Zr28   O31       1.54515      .   S
    N5     O31       3.50738      .   S
    Zr28   O32       1.02819      .   S
    N0     O32       1.90308      .   S
    Zr33   O34       1.02681      .   S
    N3     O34       1.90069      .   S
    Zr33   O35       2.54089      .   S
    N1     O35       6.68888  1_556   S
    Zr33   O36       1.54423      .   S
    N4     O36       3.50550      .   S
    Zr33   O37       2.62286      .   S
    N5     O37       6.83947  1_565   S
    Zr38   O39       2.62316      .   S
    N1     O39       6.84017      .   S
    Zr38   O40       2.54096      .   S
    N0     O40       6.68879  1_456   S
    Zr38   O41       1.54378      .   S
    N2     O41       3.50481      .   S
    Zr38   O42       1.02699      .   S
    N4     O42       1.90113      .   S
    Zr43   O44       1.25591      .   S
    N3     O44       2.97233      .   S
    Zr43   O45       1.25092      .   S
    N2     O45       2.97698      .   S
    Zr43   O46       1.25669      .   S
    N2     O46       2.97320      .   S
    Zr43   O47       1.25052      .   S
    N3     O47       2.97580      .   S
    Zr43   O48       1.25033      .   S
    N4     O48       2.97556      .   S
    Zr43   O49       1.25590      .   S
    N4     O49       2.97193      .   S
