# CIF file generated by openbabel 2.4.90, see http://openbabel.sf.net
data_I
_chemical_name_common ''
_cell_length_a 15.75
_cell_length_b 15.748
_cell_length_c 16.414
_cell_angle_alpha 89.999
_cell_angle_beta 89.999
_cell_angle_gamma 119.966
_space_group_name_H-M_alt 'P 1'
_space_group_name_Hall 'P 1'
loop_
    _symmetry_equiv_pos_as_xyz
    x,y,z
loop_
    _atom_site_label
    _atom_site_type_symbol
    _atom_site_fract_x
    _atom_site_fract_y
    _atom_site_fract_z
    _atom_site_occupancy
    Zr0     Zr   0.33331   0.66670   0.83031   1.000
    Zr1     Zr   0.66661   0.33325   0.16969   1.000
    Zr2     Zr   0.84656   0.26498   0.26760   1.000
    Zr3     Zr   0.41839   0.15338   0.26762   1.000
    Zr4     Zr   0.73493   0.58158   0.26759   1.000
    Zr5     Zr   0.15334   0.73501   0.73200   1.000
    Zr6     Zr   0.58157   0.84659   0.73236   1.000
    Zr7     Zr   0.26502   0.41842   0.73230   1.000
    N8      N    0.02873   0.53704   0.79595   1.000
    O9      O    0.15473   0.57447   0.79302   1.000
    O10     O    0.13765   0.51240   0.76852   1.000
    O11     O    0.15120   0.59399   0.83138   1.000
    O12     O    0.07613   0.59619   0.78022   1.000
    O13     O    0.95326   0.40783   0.56244   1.000
    O14     O    0.90901   0.57891   0.00774   1.000
    N15     N    0.46294   0.49168   0.79595   1.000
    O16     O    0.59216   0.54545   0.56244   1.000
    O17     O    0.42107   0.33011   0.00775   1.000
    O18     O    0.42551   0.58027   0.79303   1.000
    O19     O    0.48758   0.62524   0.76854   1.000
    O20     O    0.40600   0.55723   0.83138   1.000
    O21     O    0.40381   0.47996   0.78030   1.000
    N22     N    0.97123   0.46297   0.20405   1.000
    O23     O    0.04667   0.59218   0.43746   1.000
    O24     O    0.09097   0.42112   0.99223   1.000
    O25     O    0.84523   0.42552   0.20698   1.000
    O26     O    0.86231   0.48761   0.23146   1.000
    O27     O    0.84875   0.40600   0.16863   1.000
    O28     O    0.92382   0.40382   0.21968   1.000
    N29     N    0.49169   0.02874   0.20402   1.000
    O30     O    0.54544   0.95327   0.43754   1.000
    O31     O    0.33012   0.90905   0.99215   1.000
    O32     O    0.47996   0.07614   0.21967   1.000
    O33     O    0.58024   0.15471   0.20696   1.000
    O34     O    0.62523   0.13764   0.23144   1.000
    O35     O    0.55720   0.15118   0.16860   1.000
    N36     N    0.53702   0.50828   0.20405   1.000
    O37     O    0.40782   0.45453   0.43754   1.000
    O38     O    0.57887   0.66985   0.99224   1.000
    O39     O    0.59616   0.52002   0.21968   1.000
    O40     O    0.57443   0.41968   0.20697   1.000
    O41     O    0.51238   0.37471   0.23145   1.000
    O42     O    0.59395   0.44272   0.16862   1.000
    N43     N    0.50825   0.97123   0.79595   1.000
    O44     O    0.41969   0.84526   0.79303   1.000
    O45     O    0.37470   0.86234   0.76845   1.000
    O46     O    0.44274   0.84878   0.83138   1.000
    O47     O    0.45449   0.04668   0.56244   1.000
    O48     O    0.66979   0.09094   0.00774   1.000
    O49     O    0.51999   0.92382   0.78031   1.000
loop_
    _geom_bond_atom_site_label_1
    _geom_bond_atom_site_label_2
    _geom_bond_distance
    _geom_bond_site_symmetry_2
    _ccdc_geom_bond_type
    N8     O9        1.76610      .   S
    Zr0    O9        2.51294      .   S
    N8     O10       1.99033      .   S
    Zr7    O10       3.08766      .   S
    N8     O11       1.77060      .   S
    Zr0    O11       2.50149      .   S
    N8     O12       0.89272      .   S
    Zr5    O12       2.05639      .   S
    N8     O13       4.22241  1_455   S
    Zr2    O13       5.24683      .   S
    N8     O14       4.16130  1_456   S
    Zr4    O14       5.08192      .   S
    N15    O16       4.22238      .   S
    Zr4    O16       5.24632      .   S
    N15    O17       4.16147  1_556   S
    Zr3    O17       5.08178      .   S
    N15    O18       1.76568      .   S
    Zr0    O18       2.51201      .   S
    N15    O19       1.99039      .   S
    Zr6    O19       3.08866      .   S
    N15    O20       1.77000      .   S
    Zr0    O20       2.50081      .   S
    N15    O21       0.89203      .   S
    Zr7    O21       2.05470      .   S
    N22    O23       4.22096  1_655   S
    Zr5    O23       5.24216      .   S
    N22    O24       4.16166  1_654   S
    Zr7    O24       5.08294      .   S
    N22    O25       1.76614      .   S
    Zr1    O25       2.51338      .   S
    N22    O26       1.99016      .   S
    Zr4    O26       3.08757      .   S
    N22    O27       1.77069      .   S
    Zr1    O27       2.50184      .   S
    N22    O28       0.89229      .   S
    Zr2    O28       2.05479      .   S
    N29    O30       4.22206  1_545   S
    Zr6    O30       5.24582      .   S
    N29    O31       4.16307  1_544   S
    Zr5    O31       5.08683      .   S
    N29    O32       0.89172      .   S
    Zr3    O32       2.05362      .   S
    N29    O33       1.76600      .   S
    Zr1    O33       2.51182      .   S
    N29    O34       1.99096      .   S
    Zr2    O34       3.08910      .   S
    N29    O35       1.77001      .   S
    Zr1    O35       2.50104      .   S
    N36    O37       4.22200      .   S
    Zr7    O37       5.24510      .   S
    N36    O38       4.16165  1_554   S
    Zr6    O38       5.08192      .   S
    N36    O39       0.89195      .   S
    Zr4    O39       2.05399      .   S
    N36    O40       1.76563      .   S
    Zr1    O40       2.51181      .   S
    N36    O41       1.99040      .   S
    Zr3    O41       3.08846      .   S
    N36    O42       1.76993      .   S
    Zr1    O42       2.50066      .   S
    N43    O44       1.76597      .   S
    Zr0    O44       2.51218      .   S
    N43    O45       1.99130      .   S
    Zr5    O45       3.09030      .   S
    N43    O46       1.77012      .   S
    Zr0    O46       2.50120      .   S
    N43    O47       4.22198  1_565   S
    Zr3    O47       5.24573      .   S
    N43    O48       4.16183  1_566   S
    Zr2    O48       5.08281      .   S
    N43    O49       0.89180      .   S
    Zr6    O49       2.05372      .   S
