# CIF file generated by openbabel 2.4.90, see http://openbabel.sf.net
data_I
_chemical_name_common ''
_cell_length_a 14.039
_cell_length_b 17.601
_cell_length_c 19.954
_cell_angle_alpha 102.064
_cell_angle_beta 104.579
_cell_angle_gamma 83.83
_space_group_name_H-M_alt 'P 1'
_space_group_name_Hall 'P 1'
loop_
    _symmetry_equiv_pos_as_xyz
    x,y,z
loop_
    _atom_site_label
    _atom_site_type_symbol
    _atom_site_fract_x
    _atom_site_fract_y
    _atom_site_fract_z
    _atom_site_occupancy
    H0      H    0.09211   0.28056   0.46620   1.000
    H1      H    0.09210   0.28056   0.96620   1.000
    H2      H    0.09209   0.78056   0.46619   1.000
    H3      H    0.09209   0.78055   0.96619   1.000
    H4      H    0.59281   0.28073   0.46663   1.000
    H5      H    0.59281   0.28073   0.96663   1.000
    H6      H    0.59280   0.78073   0.46660   1.000
    H7      H    0.59279   0.78073   0.96663   1.000
    H8      H    0.32337   0.42410   0.09695   1.000
    H9      H    0.32337   0.42410   0.59695   1.000
    H10     H    0.32335   0.92411   0.09695   1.000
    H11     H    0.32336   0.92410   0.59695   1.000
    H12     H    0.82458   0.42410   0.09680   1.000
    H13     H    0.82458   0.42410   0.59681   1.000
    H14     H    0.82458   0.92410   0.09682   1.000
    H15     H    0.82457   0.92409   0.59681   1.000
    H16     H    0.36202   0.45258   0.49050   1.000
    H17     H    0.36202   0.45257   0.99052   1.000
    H18     H    0.36201   0.95257   0.49053   1.000
    H19     H    0.36200   0.95258   0.99050   1.000
    H20     H    0.86252   0.45267   0.49013   1.000
    H21     H    0.86252   0.45266   0.99010   1.000
    H22     H    0.86253   0.95265   0.49013   1.000
    H23     H    0.86252   0.95265   0.99013   1.000
    H24     H    0.40872   0.21944   0.03330   1.000
    H25     H    0.40873   0.21944   0.53331   1.000
    H26     H    0.40872   0.71945   0.03330   1.000
    H27     H    0.40872   0.71945   0.53331   1.000
    H28     H    0.90868   0.21950   0.03328   1.000
    H29     H    0.90868   0.21950   0.53329   1.000
    H30     H    0.90867   0.71950   0.03328   1.000
    H31     H    0.90867   0.71950   0.53328   1.000
    H32     H    0.17752   0.07596   0.40241   1.000
    H33     H    0.17751   0.07596   0.90240   1.000
    H34     H    0.17753   0.57596   0.40240   1.000
    H35     H    0.17753   0.57596   0.90240   1.000
    H36     H    0.67762   0.07592   0.40230   1.000
    H37     H    0.67761   0.07592   0.90229   1.000
    H38     H    0.67761   0.57592   0.40229   1.000
    H39     H    0.67761   0.57592   0.90220   1.000
    H40     H    0.13871   0.04741   0.00877   1.000
    H41     H    0.13871   0.04740   0.50877   1.000
    H42     H    0.13872   0.54740   0.00877   1.000
    H43     H    0.13871   0.54740   0.50877   1.000
    H44     H    0.63874   0.04733   0.00864   1.000
    H45     H    0.63874   0.04732   0.50864   1.000
    H46     H    0.63873   0.54733   0.00863   1.000
    H47     H    0.63873   0.54733   0.50863   1.000
    C48     C    0.24635   0.38532   0.41802   1.000
    C49     C    0.24635   0.38532   0.91802   1.000
    C50     C    0.24635   0.88532   0.41802   1.000
    C51     C    0.24634   0.88532   0.91800   1.000
    C52     C    0.74665   0.38537   0.41793   1.000
    C53     C    0.74664   0.38536   0.91793   1.000
    C54     C    0.74665   0.88536   0.41793   1.000
    C55     C    0.74665   0.88536   0.91793   1.000
    C56     C    0.17197   0.33430   0.41122   1.000
    C57     C    0.17196   0.33430   0.91122   1.000
    C58     C    0.17196   0.83430   0.41122   1.000
    C59     C    0.17196   0.83430   0.91122   1.000
    C60     C    0.67230   0.33440   0.41134   1.000
    C61     C    0.67229   0.33439   0.91134   1.000
    C62     C    0.67230   0.83439   0.41134   1.000
    C63     C    0.67229   0.83439   0.91134   1.000
    C64     C    0.14892   0.32036   0.47145   1.000
    C65     C    0.14891   0.32036   0.97145   1.000
    C66     C    0.14890   0.82036   0.47144   1.000
    C67     C    0.14890   0.82036   0.97144   1.000
    C68     C    0.64963   0.32046   0.47170   1.000
    C69     C    0.64962   0.32046   0.97170   1.000
    C70     C    0.64961   0.82047   0.47169   1.000
    C71     C    0.64961   0.82046   0.97100   1.000
    C72     C    0.20076   0.35491   0.03889   1.000
    C73     C    0.20076   0.35490   0.53880   1.000
    C74     C    0.20075   0.85491   0.03888   1.000
    C75     C    0.20075   0.85490   0.53888   1.000
    C76     C    0.70186   0.35496   0.03902   1.000
    C77     C    0.70186   0.35496   0.53902   1.000
    C78     C    0.70185   0.85496   0.03902   1.000
    C79     C    0.70185   0.85496   0.53902   1.000
    C80     C    0.28003   0.39976   0.04501   1.000
    C81     C    0.28003   0.39976   0.54501   1.000
    C82     C    0.28002   0.89976   0.04501   1.000
    C83     C    0.28002   0.89975   0.54501   1.000
    C84     C    0.78105   0.39980   0.04493   1.000
    C85     C    0.78105   0.39980   0.54493   1.000
    C86     C    0.78105   0.89980   0.04493   1.000
    C87     C    0.78105   0.89979   0.54493   1.000
    C88     C    0.30238   0.41522   0.48500   1.000
    C89     C    0.30238   0.41522   0.98000   1.000
    C90     C    0.30237   0.91522   0.48500   1.000
    C91     C    0.30236   0.91522   0.98499   1.000
    C92     C    0.80297   0.41530   0.48480   1.000
    C93     C    0.80297   0.41530   0.98480   1.000
    C94     C    0.80297   0.91529   0.48480   1.000
    C95     C    0.80297   0.91529   0.98480   1.000
    C96     C    0.25427   0.11470   0.08133   1.000
    C97     C    0.25427   0.11470   0.58133   1.000
    C98     C    0.25428   0.61470   0.08133   1.000
    C99     C    0.25427   0.61470   0.58133   1.000
    C100    C    0.75421   0.11470   0.08122   1.000
    C101    C    0.75421   0.11470   0.58122   1.000
    C102    C    0.75421   0.61471   0.08120   1.000
    C103    C    0.75420   0.61470   0.58121   1.000
    C104    C    0.32875   0.16567   0.08822   1.000
    C105    C    0.32875   0.16567   0.58822   1.000
    C106    C    0.32875   0.66568   0.08822   1.000
    C107    C    0.32874   0.66567   0.58822   1.000
    C108    C    0.82865   0.16571   0.08815   1.000
    C109    C    0.82865   0.16571   0.58815   1.000
    C110    C    0.82864   0.66572   0.08814   1.000
    C111    C    0.82864   0.66571   0.58814   1.000
    C112    C    0.35188   0.17966   0.02803   1.000
    C113    C    0.35188   0.17965   0.52803   1.000
    C114    C    0.35188   0.67966   0.02803   1.000
    C115    C    0.35188   0.67966   0.52803   1.000
    C116    C    0.85185   0.17969   0.02798   1.000
    C117    C    0.85185   0.17969   0.52790   1.000
    C118    C    0.85184   0.67969   0.02790   1.000
    C119    C    0.85184   0.67969   0.52790   1.000
    C120    C    0.30006   0.14513   0.46059   1.000
    C121    C    0.30005   0.14513   0.96059   1.000
    C122    C    0.30006   0.64513   0.46059   1.000
    C123    C    0.30006   0.64513   0.96050   1.000
    C124    C    0.80007   0.14515   0.46053   1.000
    C125    C    0.80007   0.14515   0.96053   1.000
    C126    C    0.80006   0.64515   0.46052   1.000
    C127    C    0.80006   0.64515   0.96052   1.000
    C128    C    0.22077   0.10027   0.45438   1.000
    C129    C    0.22077   0.10027   0.95438   1.000
    C130    C    0.22077   0.60027   0.45438   1.000
    C131    C    0.22078   0.60027   0.95430   1.000
    C132    C    0.72082   0.10024   0.45428   1.000
    C133    C    0.72082   0.10024   0.95428   1.000
    C134    C    0.72081   0.60024   0.45427   1.000
    C135    C    0.72081   0.60024   0.95427   1.000
    C136    C    0.19835   0.08476   0.01430   1.000
    C137    C    0.19836   0.08475   0.51433   1.000
    C138    C    0.19836   0.58476   0.01433   1.000
    C139    C    0.19836   0.58475   0.51433   1.000
    C140    C    0.69835   0.08473   0.01422   1.000
    C141    C    0.69835   0.08472   0.51422   1.000
    C142    C    0.69834   0.58473   0.01421   1.000
    C143    C    0.69834   0.58473   0.51421   1.000
loop_
    _geom_bond_atom_site_label_1
    _geom_bond_atom_site_label_2
    _geom_bond_distance
    _geom_bond_site_symmetry_2
    _ccdc_geom_bond_type
    H46    C142      1.08947      .   S
    H44    C140      1.08947      .   S
    H40    C136      1.08958      .   S
    H42    C138      1.08945      .   S
    C142   C102      1.39520      .   S
    C142   C135      1.39619  1_554   S
    C140   C100      1.39534      .   S
    C140   C133      1.39620  1_554   S
    C136   C96       1.39594      .   S
    C136   C129      1.39547  1_554   S
    C138   C98       1.39549      .   S
    C138   C131      1.39757  1_554   S
    C118   H30       1.08841      .   S
    C118   C110      1.39623      .   S
    C118   C127      1.40252  1_554   S
    C116   H28       1.08876      .   S
    C116   C108      1.39488      .   S
    C116   C125      1.40355  1_554   S
    C114   H26       1.08877      .   S
    C114   C106      1.39488      .   S
    C114   C123      1.40487  1_554   S
    C112   H24       1.08876      .   S
    C112   C104      1.39486      .   S
    C112   C121      1.40354  1_554   S
    C74    C82       1.39882      .   S
    C74    C67       1.40372  1_554   S
    C72    C80       1.39885      .   S
    C72    C65       1.40373  1_554   S
    C76    C84       1.39879      .   S
    C76    C69       1.40349  1_554   S
    C78    C86       1.39879      .   S
    C78    C71       1.41379  1_554   S
    C84    H12       1.08646      .   S
    C84    C93       1.39619  1_554   S
    C86    H14       1.08674      .   S
    C86    C95       1.39621  1_554   S
    C82    H10       1.08667      .   S
    C82    C91       1.39662  1_554   S
    C80    H8        1.08670      .   S
    C80    C89       1.49196  1_554   S
    C102   C110      1.41213      .   S
    C100   C108      1.41220      .   S
    C98    C106      1.41229      .   S
    C96    C104      1.41230      .   S
    H38    C134      1.08647      .   S
    H36    C132      1.08647      .   S
    H34    C130      1.08666      .   S
    H32    C128      1.08652      .   S
    C58    C50       1.41235      .   S
    C58    C66       1.39465      .   S
    C56    C48       1.41234      .   S
    C56    C64       1.39480      .   S
    C60    C52       1.41226      .   S
    C60    C68       1.39476      .   S
    C62    C54       1.41228      .   S
    C62    C70       1.39461      .   S
    C54    C94       1.39561      .   S
    C52    C92       1.39562      .   S
    C48    C88       1.39557      .   S
    C50    C90       1.39556      .   S
    C134   C126      1.39869      .   S
    C134   C143      1.39626      .   S
    C132   C124      1.39870      .   S
    C132   C141      1.39625      .   S
    C130   C122      1.39865      .   S
    C130   C139      1.39611      .   S
    C128   C120      1.39867      .   S
    C128   C137      1.39610      .   S
    C126   C119      1.40247      .   S
    C124   C117      1.40233      .   S
    C122   C115      1.40351      .   S
    C120   C113      1.40351      .   S
    H2     C66       1.08871      .   S
    H0     C64       1.08872      .   S
    H6     C70       1.08862      .   S
    H4     C68       1.08871      .   S
    C66    C75       1.40368      .   S
    C64    C73       1.40235      .   S
    C70    C79       1.40359      .   S
    C68    C77       1.40345      .   S
    C92    H20       1.08947      .   S
    C92    C85       1.39625      .   S
    C94    H22       1.08948      .   S
    C94    C87       1.39628      .   S
    C88    H16       1.08963      .   S
    C88    C81       1.39647      .   S
    C90    H18       1.08951      .   S
    C90    C83       1.39650      .   S
    H47    C143      1.08947      .   S
    H45    C141      1.08948      .   S
    H41    C137      1.08945      .   S
    H43    C139      1.08946      .   S
    C143   C103      1.39533      .   S
    C141   C101      1.39533      .   S
    C139   C99       1.39548      .   S
    C137   C97       1.39548      .   S
    C117   H29       1.08837      .   S
    C117   C109      1.39644      .   S
    C119   H31       1.08842      .   S
    C119   C111      1.39624      .   S
    C113   H25       1.08872      .   S
    C113   C105      1.39488      .   S
    C115   H27       1.08871      .   S
    C115   C107      1.39490      .   S
    C73    C81       1.39846      .   S
    C75    C83       1.39883      .   S
    C77    C85       1.39879      .   S
    C79    C87       1.39879      .   S
    C87    H15       1.08659      .   S
    C85    H13       1.08660      .   S
    C81    H9        1.08669      .   S
    C83    H11       1.08668      .   S
    C103   C111      1.41221      .   S
    C101   C109      1.41219      .   S
    C99    C107      1.41229      .   S
    C97    C105      1.41231      .   S
    H39    C135      1.08778      .   S
    H37    C133      1.08662      .   S
    H35    C131      1.08549      .   S
    H33    C129      1.08667      .   S
    C57    C49       1.41233      .   S
    C57    C65       1.39479      .   S
    C59    C51       1.41243      .   S
    C59    C67       1.39463      .   S
    C63    C55       1.41227      .   S
    C63    C71       1.38140      .   S
    C61    C53       1.41225      .   S
    C61    C69       1.39475      .   S
    C55    C95       1.39562      .   S
    C53    C93       1.39563      .   S
    C51    C91       1.39571      .   S
    C49    C89       1.32378      .   S
    C135   C127      1.39869      .   S
    C133   C125      1.39869      .   S
    C131   C123      1.39871      .   S
    C129   C121      1.39867      .   S
    H3     C67       1.08871      .   S
    H1     C65       1.08871      .   S
    H7     C71       1.09194      .   S
    H5     C69       1.08871      .   S
    C89    H17       1.07216      .   S
    C93    H21       1.08961      .   S
    C95    H23       1.08948      .   S
    C91    H19       1.08959      .   S
