# CIF file generated by openbabel 2.4.90, see http://openbabel.sf.net
data_I
_chemical_name_common ''
_cell_length_a 14.039
_cell_length_b 17.601
_cell_length_c 19.954
_cell_angle_alpha 102.064
_cell_angle_beta 104.579
_cell_angle_gamma 83.83
_space_group_name_H-M_alt 'P 1'
_space_group_name_Hall 'P 1'
loop_
    _symmetry_equiv_pos_as_xyz
    x,y,z
loop_
    _atom_site_label
    _atom_site_type_symbol
    _atom_site_fract_x
    _atom_site_fract_y
    _atom_site_fract_z
    _atom_site_occupancy
    Cd0     Cd   0.38456   0.26500   0.81584   1.000
    Cd1     Cd   0.38456   0.76501   0.31584   1.000
    Cd2     Cd   0.38456   0.76500   0.81584   1.000
    Cd3     Cd   0.88451   0.26507   0.31578   1.000
    Cd4     Cd   0.88451   0.26507   0.81578   1.000
    Cd5     Cd   0.88452   0.76507   0.31577   1.000
    Cd6     Cd   0.88451   0.76507   0.81577   1.000
    Cd7     Cd   0.11580   0.23508   0.18348   1.000
    Cd8     Cd   0.11580   0.23508   0.68348   1.000
    Cd9     Cd   0.11580   0.73508   0.18348   1.000
    Cd10    Cd   0.11580   0.73508   0.68348   1.000
    Cd11    Cd   0.61607   0.23504   0.18349   1.000
    Cd12    Cd   0.61606   0.23504   0.68340   1.000
    Cd13    Cd   0.61606   0.73504   0.18348   1.000
    Cd14    Cd   0.61606   0.73504   0.68348   1.000
    Cd15    Cd   0.25018   0.99998   0.24967   1.000
    Cd16    Cd   0.25018   0.99998   0.74968   1.000
    Cd17    Cd   0.25018   0.49998   0.24968   1.000
    Cd18    Cd   0.25018   0.49997   0.74968   1.000
    Cd19    Cd   0.75098   0.99986   0.24977   1.000
    Cd20    Cd   0.75097   0.99986   0.74977   1.000
    Cd21    Cd   0.75098   0.49986   0.24976   1.000
    Cd22    Cd   0.75097   0.49985   0.74976   1.000
    Cd23    Cd   0.38456   0.26501   0.31584   1.000
    C24     C    0.73906   0.58687   0.64385   1.000
    C25     C    0.37264   0.21179   0.15906   1.000
    C26     C    0.37264   0.21179   0.65906   1.000
    C27     C    0.37264   0.71179   0.15906   1.000
    C28     C    0.26117   0.41323   0.35530   1.000
    C29     C    0.26117   0.41323   0.85530   1.000
    C30     C    0.26117   0.91322   0.35530   1.000
    C31     C    0.26116   0.91322   0.85530   1.000
    C32     C    0.76122   0.41327   0.35516   1.000
    C33     C    0.76121   0.41326   0.85516   1.000
    C34     C    0.76122   0.91326   0.35510   1.000
    C35     C    0.76121   0.91326   0.85516   1.000
    O36     O    0.20457   0.38018   0.16374   1.000
    O37     O    0.20456   0.38018   0.66374   1.000
    O38     O    0.20456   0.88017   0.16374   1.000
    O39     O    0.20456   0.88017   0.66374   1.000
    O40     O    0.70778   0.37992   0.16405   1.000
    C41     C    0.12784   0.28823   0.34040   1.000
    C42     C    0.12784   0.28823   0.84040   1.000
    C43     C    0.12784   0.78823   0.34040   1.000
    C44     C    0.12784   0.78823   0.84040   1.000
    C45     C    0.62793   0.28826   0.34060   1.000
    C46     C    0.62792   0.28826   0.84060   1.000
    C47     C    0.62793   0.78826   0.34060   1.000
    C48     C    0.62792   0.78826   0.84060   1.000
    C49     C    0.17445   0.33933   0.10320   1.000
    C50     C    0.17445   0.33933   0.60319   1.000
    C51     C    0.17444   0.83933   0.10319   1.000
    C52     C    0.17444   0.83933   0.60319   1.000
    C53     C    0.67613   0.33949   0.10355   1.000
    C54     C    0.67613   0.33949   0.60355   1.000
    C55     C    0.67611   0.83950   0.10355   1.000
    C56     C    0.67610   0.83949   0.60355   1.000
    C57     C    0.23911   0.08684   0.14395   1.000
    C58     C    0.23911   0.08684   0.64395   1.000
    C59     C    0.23911   0.58684   0.14395   1.000
    C60     C    0.23911   0.58684   0.64394   1.000
    C61     C    0.73908   0.08687   0.14385   1.000
    C62     C    0.73908   0.08686   0.64386   1.000
    C63     C    0.73907   0.58687   0.14385   1.000
    C64     C    0.37263   0.71179   0.65906   1.000
    C65     C    0.87252   0.21180   0.15901   1.000
    C66     C    0.87251   0.21179   0.65901   1.000
    C67     C    0.87252   0.71179   0.15900   1.000
    C68     C    0.87251   0.71179   0.65900   1.000
    C69     C    0.32610   0.16076   0.39624   1.000
    C70     C    0.32610   0.16076   0.89620   1.000
    C71     C    0.32610   0.66076   0.39624   1.000
    C72     C    0.32610   0.66076   0.89623   1.000
    C73     C    0.82617   0.16077   0.39620   1.000
    C74     C    0.82617   0.16076   0.89619   1.000
    C75     C    0.82617   0.66076   0.39619   1.000
    C76     C    0.82617   0.66076   0.89619   1.000
    O77     O    0.34116   0.39688   0.33418   1.000
    O78     O    0.34116   0.39688   0.83418   1.000
    O79     O    0.34117   0.89688   0.33418   1.000
    O80     O    0.34116   0.89688   0.83410   1.000
    O81     O    0.84122   0.39696   0.33402   1.000
    O82     O    0.84121   0.39696   0.83402   1.000
    O83     O    0.84122   0.89696   0.33402   1.000
    O84     O    0.84122   0.89695   0.83402   1.000
    O85     O    0.19260   0.45926   0.32818   1.000
    O86     O    0.19260   0.45926   0.82810   1.000
    O87     O    0.19260   0.95925   0.32817   1.000
    O88     O    0.19259   0.95925   0.82817   1.000
    O89     O    0.69264   0.45927   0.32804   1.000
    O90     O    0.69263   0.45927   0.82804   1.000
    O91     O    0.69264   0.95926   0.32800   1.000
    O92     O    0.69263   0.95926   0.82804   1.000
    O93     O    0.17965   0.28340   0.29437   1.000
    O94     O    0.17965   0.28340   0.79437   1.000
    O95     O    0.17966   0.78340   0.29437   1.000
    O96     O    0.17965   0.78339   0.79437   1.000
    O97     O    0.67952   0.28341   0.29440   1.000
    O98     O    0.67951   0.28340   0.79440   1.000
    O99     O    0.67952   0.78340   0.29442   1.000
    O100    O    0.67952   0.78340   0.79442   1.000
    O101    O    0.04998   0.25312   0.32830   1.000
    O102    O    0.04998   0.25311   0.82839   1.000
    O103    O    0.04998   0.75311   0.32837   1.000
    O104    O    0.04998   0.75311   0.82837   1.000
    O105    O    0.55011   0.25317   0.32885   1.000
    O106    O    0.55011   0.25317   0.82885   1.000
    O107    O    0.55011   0.75317   0.32884   1.000
    O108    O    0.55011   0.75317   0.82884   1.000
    O109    O    0.12154   0.28028   0.09104   1.000
    O110    O    0.12153   0.28028   0.59104   1.000
    O111    O    0.12152   0.78028   0.09103   1.000
    O112    O    0.12153   0.78028   0.59103   1.000
    O113    O    0.62222   0.28106   0.09157   1.000
    O114    O    0.62223   0.28105   0.59157   1.000
    O115    O    0.62218   0.78108   0.09157   1.000
    O116    O    0.62218   0.78108   0.59156   1.000
    O117    O    0.70778   0.37992   0.66405   1.000
    O118    O    0.70778   0.87991   0.16405   1.000
    O119    O    0.70778   0.87991   0.66405   1.000
    O120    O    0.15886   0.10316   0.16469   1.000
    O121    O    0.15886   0.10316   0.66400   1.000
    O122    O    0.15886   0.60316   0.16469   1.000
    O123    O    0.15885   0.60316   0.66469   1.000
    O124    O    0.65881   0.10315   0.16458   1.000
    O125    O    0.65880   0.10314   0.66458   1.000
    O126    O    0.65880   0.60315   0.16457   1.000
    O127    O    0.65879   0.60315   0.66457   1.000
    O128    O    0.30761   0.04090   0.17129   1.000
    O129    O    0.30761   0.04090   0.67129   1.000
    O130    O    0.30761   0.54090   0.17129   1.000
    O131    O    0.30760   0.54090   0.67129   1.000
    O132    O    0.80768   0.04102   0.17122   1.000
    O133    O    0.80767   0.04102   0.67122   1.000
    O134    O    0.80767   0.54103   0.17121   1.000
    O135    O    0.80766   0.54102   0.67121   1.000
    O136    O    0.32066   0.21661   0.20499   1.000
    O137    O    0.32065   0.21660   0.70499   1.000
    O138    O    0.32066   0.71661   0.20499   1.000
    O139    O    0.32065   0.71660   0.70499   1.000
    O140    O    0.82060   0.21652   0.20497   1.000
    O141    O    0.82060   0.21652   0.70497   1.000
    O142    O    0.82060   0.71652   0.20496   1.000
    O143    O    0.82060   0.71652   0.70496   1.000
    O144    O    0.45054   0.24691   0.17123   1.000
    O145    O    0.45054   0.24691   0.67123   1.000
    O146    O    0.45054   0.74691   0.17123   1.000
    O147    O    0.45053   0.74691   0.67123   1.000
    O148    O    0.95035   0.24698   0.17116   1.000
    O149    O    0.95035   0.24697   0.67116   1.000
    O150    O    0.95035   0.74698   0.17114   1.000
    O151    O    0.95035   0.74697   0.67114   1.000
    O152    O    0.37896   0.21983   0.40830   1.000
    O153    O    0.37896   0.21982   0.90831   1.000
    O154    O    0.37897   0.71982   0.40831   1.000
    O155    O    0.37897   0.71982   0.90831   1.000
    O156    O    0.87899   0.21986   0.40827   1.000
    O157    O    0.87899   0.21985   0.90827   1.000
    O158    O    0.87899   0.71985   0.40826   1.000
    O159    O    0.87899   0.71985   0.90826   1.000
    O160    O    0.29574   0.11989   0.33574   1.000
    O161    O    0.29574   0.11989   0.83574   1.000
    O162    O    0.29574   0.61989   0.33574   1.000
    O163    O    0.29574   0.61988   0.83574   1.000
    O164    O    0.79583   0.11988   0.33570   1.000
    O165    O    0.79583   0.11988   0.83570   1.000
    O166    O    0.79583   0.61988   0.33570   1.000
    O167    O    0.79583   0.61987   0.83500   1.000
loop_
    _geom_bond_atom_site_label_1
    _geom_bond_atom_site_label_2
    _geom_bond_distance
    _geom_bond_site_symmetry_2
    _ccdc_geom_bond_type
    O111   C51       1.28871      .   S
    O111   Cd9       2.17814      .   S
    O109   C49       1.28871      .   S
    O109   Cd7       2.17802      .   S
    O115   C55       1.28881      .   S
    O115   Cd13      2.17777      .   S
    O113   C53       1.28880      .   S
    O113   Cd11      2.17797      .   S
    C51    O38       1.26508      .   S
    C49    O36       1.26494      .   S
    C53    O40       1.26491      .   S
    C55    O118      1.26487      .   S
    C61    O124      1.28018      .   S
    C61    O132      1.27640      .   S
    C63    O126      1.28008      .   S
    C63    O134      1.27633      .   S
    C57    O120      1.28008      .   S
    C57    O128      1.27648      .   S
    C59    O122      1.28012      .   S
    C59    O130      1.27648      .   S
    C67    O150      1.25927      .   S
    C67    O142      1.29251      .   S
    C65    O148      1.25925      .   S
    C65    O140      1.29255      .   S
    C25    O144      1.25937      .   S
    C25    O136      1.29252      .   S
    C27    O146      1.25937      .   S
    C27    O138      1.29252      .   S
    O38    Cd15      2.45425      .   S
    O36    Cd17      2.45416      .   S
    O40    Cd21      2.44806      .   S
    O118   Cd19      2.44832      .   S
    O126   Cd13      2.31081      .   S
    O124   Cd11      2.31079      .   S
    O122   Cd9       2.31206      .   S
    O120   Cd7       2.31206      .   S
    O150   Cd9       2.26468  1_655   S
    O148   Cd7       2.26468  1_655   S
    O134   Cd21      2.20045      .   S
    O132   Cd19      2.20045  1_545   S
    O144   Cd11      2.26597      .   S
    O146   Cd13      2.26597      .   S
    O128   Cd15      2.20123  1_545   S
    O130   Cd17      2.20137      .   S
    Cd13   O99       2.19115      .   S
    Cd9    O95       2.19126      .   S
    Cd7    O93       2.19125      .   S
    Cd11   O97       2.19066      .   S
    O142   Cd5       2.19099      .   S
    O140   Cd3       2.19099      .   S
    O138   Cd1       2.19106      .   S
    O136   Cd23      2.19104      .   S
    Cd15   O87       2.20281      .   S
    Cd15   O160      2.45662  1_565   S
    Cd17   O85       2.20270      .   S
    Cd17   O162      2.45654      .   S
    Cd21   O89       2.20392      .   S
    Cd21   O166      2.45517      .   S
    Cd19   O91       2.20320      .   S
    Cd19   O164      2.45507  1_565   S
    O93    C41       1.29238      .   S
    O95    C43       1.29246      .   S
    O97    C45       1.29289      .   S
    O99    C47       1.29261      .   S
    Cd5    O103      2.26423  1_655   S
    Cd5    O83       2.31206      .   S
    Cd5    O158      2.17824      .   S
    Cd3    O101      2.26446  1_655   S
    Cd3    O81       2.31205      .   S
    Cd3    O156      2.17822      .   S
    Cd23   O105      2.26436      .   S
    Cd23   O77       2.31219      .   S
    Cd23   O152      2.17761      .   S
    Cd1    O107      2.26436      .   S
    Cd1    O79       2.31220      .   S
    Cd1    O154      2.17781      .   S
    O91    C34       1.27606      .   S
    O89    C32       1.27621      .   S
    O87    C30       1.27651      .   S
    O85    C28       1.27642      .   S
    O101   C41       1.25900      .   S
    O103   C43       1.25919      .   S
    O107   C47       1.25914      .   S
    O105   C45       1.25915      .   S
    O81    C32       1.28076      .   S
    O83    C34       1.28016      .   S
    O77    C28       1.28050      .   S
    O79    C30       1.28053      .   S
    O164   C73       1.26514      .   S
    O166   C75       1.26500      .   S
    O160   C69       1.26507      .   S
    O162   C71       1.26508      .   S
    C75    O158      1.28867      .   S
    C73    O156      1.28867      .   S
    C71    O154      1.28870      .   S
    C69    O152      1.28872      .   S
    O112   C52       1.28872      .   S
    O112   Cd10      2.17815      .   S
    O110   C50       1.28875      .   S
    O110   Cd8       2.17801      .   S
    O116   C56       1.28879      .   S
    O116   Cd14      2.17797      .   S
    O114   C54       1.28881      .   S
    O114   Cd12      2.17629      .   S
    C52    O39       1.26508      .   S
    C50    O37       1.26510      .   S
    C54    O117      1.26491      .   S
    C56    O119      1.26486      .   S
    C24    O127      1.28010      .   S
    C24    O135      1.27635      .   S
    C62    O125      1.28009      .   S
    C62    O133      1.27636      .   S
    C60    O123      1.28020      .   S
    C60    O131      1.27653      .   S
    C58    O121      1.27329      .   S
    C58    O129      1.27647      .   S
    C68    O151      1.25927      .   S
    C68    O143      1.29251      .   S
    C66    O149      1.25927      .   S
    C66    O141      1.29255      .   S
    C64    O147      1.25938      .   S
    C64    O139      1.29252      .   S
    C26    O145      1.25939      .   S
    C26    O137      1.29254      .   S
    O37    Cd18      2.45414      .   S
    O39    Cd16      2.45433      .   S
    O121   Cd8       2.31237      .   S
    O117   Cd22      2.44808      .   S
    O119   Cd20      2.44832      .   S
    O127   Cd14      2.31084      .   S
    O125   Cd12      2.31080      .   S
    O123   Cd10      2.31206      .   S
    O151   Cd10      2.26467  1_655   S
    O149   Cd8       2.26467  1_655   S
    O135   Cd22      2.20041      .   S
    O133   Cd20      2.20044  1_545   S
    O145   Cd12      2.26619      .   S
    O147   Cd14      2.26596      .   S
    O131   Cd18      2.20137      .   S
    O129   Cd16      2.20138  1_545   S
    Cd12   O98       2.19214      .   S
    Cd14   O100      2.19114      .   S
    Cd10   O96       2.19126      .   S
    Cd8    O94       2.19124      .   S
    O143   Cd6       2.19099      .   S
    O141   Cd4       2.19100      .   S
    O139   Cd2       2.19107      .   S
    O137   Cd0       2.19105      .   S
    Cd18   O86       2.20133      .   S
    Cd18   O163      2.45654      .   S
    Cd16   O88       2.20266      .   S
    Cd16   O161      2.45652  1_565   S
    Cd22   O90       2.20395      .   S
    Cd22   O167      2.44886      .   S
    Cd20   O92       2.20392      .   S
    Cd20   O165      2.45508  1_565   S
    O94    C42       1.29237      .   S
    O96    C44       1.29244      .   S
    O98    C46       1.29289      .   S
    O100   C48       1.29260      .   S
    Cd6    O104      2.26423  1_655   S
    Cd6    O84       2.31205      .   S
    Cd6    O159      2.17823      .   S
    Cd4    O102      2.26424  1_655   S
    Cd4    O82       2.31203      .   S
    Cd4    O157      2.17823      .   S
    Cd0    O106      2.26438      .   S
    Cd0    O78       2.31219      .   S
    Cd0    O153      2.17780      .   S
    Cd2    O108      2.26437      .   S
    Cd2    O80       2.31218      .   S
    Cd2    O155      2.17782      .   S
    O92    C35       1.27621      .   S
    O90    C33       1.27620      .   S
    O86    C29       1.27700      .   S
    O88    C31       1.27650      .   S
    O104   C44       1.25920      .   S
    O102   C42       1.25922      .   S
    O108   C48       1.25914      .   S
    O106   C46       1.25915      .   S
    O84    C35       1.28077      .   S
    O82    C33       1.28078      .   S
    O80    C31       1.28134      .   S
    O78    C29       1.28051      .   S
    O167   C76       1.27550      .   S
    O165   C74       1.26497      .   S
    O163   C72       1.26494      .   S
    O161   C70       1.26446      .   S
    C76    O159      1.28867      .   S
    C74    O157      1.28866      .   S
    C70    O153      1.28861      .   S
    C72    O155      1.28866      .   S
