# CIF file generated by openbabel 2.4.90, see http://openbabel.sf.net
data_I
_chemical_name_common ''
_cell_length_a 14.039
_cell_length_b 17.601
_cell_length_c 19.954
_cell_angle_alpha 102.064
_cell_angle_beta 104.579
_cell_angle_gamma 83.83
_space_group_name_H-M_alt 'P 1'
_space_group_name_Hall 'P 1'
loop_
    _symmetry_equiv_pos_as_xyz
    x,y,z
loop_
    _atom_site_label
    _atom_site_type_symbol
    _atom_site_fract_x
    _atom_site_fract_y
    _atom_site_fract_z
    _atom_site_occupancy
    C0      C    0.73906   0.58687   0.64385   1.000
    C1      C    0.37264   0.21179   0.15906   1.000
    C2      C    0.37264   0.21179   0.65906   1.000
    C3      C    0.37264   0.71179   0.15906   1.000
    C4      C    0.26117   0.41323   0.35530   1.000
    C5      C    0.26117   0.41323   0.85530   1.000
    C6      C    0.26117   0.91322   0.35530   1.000
    C7      C    0.26116   0.91322   0.85530   1.000
    C8      C    0.76122   0.41327   0.35516   1.000
    C9      C    0.76121   0.41326   0.85516   1.000
    C10     C    0.76122   0.91326   0.35510   1.000
    C11     C    0.76121   0.91326   0.85516   1.000
    C12     C    0.12784   0.28823   0.34040   1.000
    C13     C    0.12784   0.28823   0.84040   1.000
    C14     C    0.12784   0.78823   0.34040   1.000
    C15     C    0.12784   0.78823   0.84040   1.000
    C16     C    0.62793   0.28826   0.34060   1.000
    C17     C    0.62792   0.28826   0.84060   1.000
    C18     C    0.62793   0.78826   0.34060   1.000
    C19     C    0.62792   0.78826   0.84060   1.000
    C20     C    0.17445   0.33933   0.10320   1.000
    C21     C    0.17445   0.33933   0.60319   1.000
    C22     C    0.17444   0.83933   0.10319   1.000
    C23     C    0.17444   0.83933   0.60319   1.000
    C24     C    0.67613   0.33949   0.10355   1.000
    C25     C    0.67613   0.33949   0.60355   1.000
    C26     C    0.67611   0.83950   0.10355   1.000
    C27     C    0.67610   0.83949   0.60355   1.000
    C28     C    0.23911   0.08684   0.14395   1.000
    C29     C    0.23911   0.08684   0.64395   1.000
    C30     C    0.23911   0.58684   0.14395   1.000
    C31     C    0.23911   0.58684   0.64394   1.000
    C32     C    0.73908   0.08687   0.14385   1.000
    C33     C    0.73908   0.08686   0.64386   1.000
    C34     C    0.73907   0.58687   0.14385   1.000
    C35     C    0.37263   0.71179   0.65906   1.000
    C36     C    0.87252   0.21180   0.15901   1.000
    C37     C    0.87251   0.21179   0.65901   1.000
    C38     C    0.87252   0.71179   0.15900   1.000
    C39     C    0.87251   0.71179   0.65900   1.000
    C40     C    0.32610   0.16076   0.39624   1.000
    C41     C    0.32610   0.16076   0.89620   1.000
    C42     C    0.32610   0.66076   0.39624   1.000
    C43     C    0.32610   0.66076   0.89623   1.000
    C44     C    0.82617   0.16077   0.39620   1.000
    C45     C    0.82617   0.16076   0.89619   1.000
    C46     C    0.82617   0.66076   0.39619   1.000
    C47     C    0.82617   0.66076   0.89619   1.000
