# CIF file generated by openbabel 2.4.90, see http://openbabel.sf.net
data_I
_chemical_name_common ''
_cell_length_a 18.591
_cell_length_b 14.43
_cell_length_c 17.459
_cell_angle_alpha 99.039
_cell_angle_beta 89.947
_cell_angle_gamma 108.708
_space_group_name_H-M_alt 'P 1'
_space_group_name_Hall 'P 1'
loop_
    _symmetry_equiv_pos_as_xyz
    x,y,z
loop_
    _atom_site_label
    _atom_site_type_symbol
    _atom_site_fract_x
    _atom_site_fract_y
    _atom_site_fract_z
    _atom_site_occupancy
    Zn0     Zn   0.98760   0.34785   0.33930   1.000
    Zn1     Zn   0.28392   0.34436   0.54646   1.000
    Zn2     Zn   0.78393   0.34436   0.54646   1.000
    Zn3     Zn   0.31301   0.65152   0.16034   1.000
    Zn4     Zn   0.81302   0.65153   0.16034   1.000
    Zn5     Zn   0.11059   0.65601   0.95378   1.000
    Zn6     Zn   0.61059   0.65602   0.95378   1.000
    Zn7     Zn   0.01241   0.65216   0.66062   1.000
    Zn8     Zn   0.51242   0.65216   0.66060   1.000
    Zn9     Zn   0.21609   0.65566   0.45354   1.000
    Zn10    Zn   0.71610   0.65566   0.45354   1.000
    Zn11    Zn   0.18699   0.34847   0.83966   1.000
    Zn12    Zn   0.68700   0.34848   0.83966   1.000
    Zn13    Zn   0.38942   0.34399   0.04620   1.000
    Zn14    Zn   0.88942   0.34400   0.04620   1.000
    H15     H    0.07398   0.25056   0.33942   1.000
    H16     H    0.57398   0.25056   0.33942   1.000
    H17     H    0.06244   0.26931   0.43219   1.000
    H18     H    0.56245   0.26931   0.43210   1.000
    Zn19    Zn   0.48760   0.34786   0.33930   1.000
    H20     H    0.44816   0.74852   0.16030   1.000
    H21     H    0.94817   0.74854   0.16037   1.000
    H22     H    0.42740   0.73066   0.06760   1.000
    H23     H    0.92742   0.73066   0.06766   1.000
    H24     H    0.42603   0.74945   0.66058   1.000
    H25     H    0.92604   0.74945   0.66058   1.000
    H26     H    0.43757   0.73070   0.56781   1.000
    H27     H    0.93758   0.73070   0.56781   1.000
    H28     H    0.05184   0.25142   0.83960   1.000
    H29     H    0.55185   0.25143   0.83960   1.000
    H30     H    0.07257   0.26933   0.93231   1.000
    H31     H    0.57258   0.26934   0.93231   1.000
    C32     C    0.36796   0.41287   0.41660   1.000
    C33     C    0.86796   0.41287   0.41660   1.000
    C34     C    0.36166   0.64492   0.43195   1.000
    C35     C    0.86166   0.64492   0.43195   1.000
    C36     C    0.44383   0.67648   0.27476   1.000
    C37     C    0.94383   0.67649   0.27477   1.000
    C38     C    0.07350   0.56025   0.36807   1.000
    C39     C    0.57351   0.56026   0.36807   1.000
    C40     C    0.16117   0.58681   0.08310   1.000
    C41     C    0.66118   0.58682   0.08310   1.000
    C42     C    0.03966   0.35473   0.06780   1.000
    C43     C    0.53967   0.35473   0.06780   1.000
    C44     C    0.10577   0.32282   0.22470   1.000
    C45     C    0.60578   0.32282   0.22475   1.000
    C46     C    0.29382   0.43915   0.13158   1.000
    C47     C    0.79382   0.43916   0.13158   1.000
    C48     C    0.13206   0.58715   0.58339   1.000
    C49     C    0.63206   0.58715   0.58339   1.000
    C50     C    0.13836   0.35510   0.56803   1.000
    C51     C    0.63837   0.35510   0.56803   1.000
    C52     C    0.05618   0.32350   0.72520   1.000
    C53     C    0.55619   0.32350   0.72520   1.000
    C54     C    0.42651   0.43975   0.63193   1.000
    C55     C    0.92651   0.43975   0.63193   1.000
    C56     C    0.33883   0.41318   0.91689   1.000
    C57     C    0.83884   0.41318   0.91689   1.000
    C58     C    0.46034   0.64527   0.93219   1.000
    C59     C    0.96035   0.64528   0.93219   1.000
    C60     C    0.39422   0.67718   0.77524   1.000
    C61     C    0.89424   0.67718   0.77525   1.000
    C62     C    0.20619   0.56083   0.86842   1.000
    C63     C    0.70620   0.56084   0.86842   1.000
    O64     O    0.03481   0.25029   0.37989   1.000
    O65     O    0.53481   0.25029   0.37989   1.000
    O66     O    0.40579   0.35449   0.42029   1.000
    O67     O    0.90579   0.35448   0.42029   1.000
    O68     O    0.31208   0.41713   0.45752   1.000
    O69     O    0.81208   0.41713   0.45752   1.000
    O70     O    0.29399   0.60954   0.40051   1.000
    O71     O    0.79400   0.60954   0.40051   1.000
    O72     O    0.38397   0.71824   0.48612   1.000
    O73     O    0.88398   0.71824   0.48610   1.000
    O74     O    0.37393   0.63237   0.25422   1.000
    O75     O    0.87394   0.63237   0.25422   1.000
    O76     O    0.49047   0.74285   0.24286   1.000
    O77     O    0.99047   0.74286   0.24288   1.000
    O78     O    0.12954   0.64174   0.37999   1.000
    O79     O    0.62954   0.64174   0.37999   1.000
    O80     O    0.06870   0.48414   0.39672   1.000
    O81     O    0.56871   0.48414   0.39672   1.000
    O82     O    0.40917   0.74921   0.12007   1.000
    O83     O    0.90918   0.74922   0.12008   1.000
    O84     O    0.22804   0.64537   0.07954   1.000
    O85     O    0.72805   0.64538   0.07954   1.000
    O86     O    0.10312   0.58287   0.04252   1.000
    O87     O    0.60313   0.58288   0.04252   1.000
    O88     O    0.48993   0.39058   0.09949   1.000
    O89     O    0.98993   0.39058   0.09949   1.000
    O90     O    0.02498   0.28133   0.01365   1.000
    O91     O    0.52499   0.28134   0.01365   1.000
    O92     O    0.05800   0.36723   0.24537   1.000
    O93     O    0.55801   0.36723   0.24537   1.000
    O94     O    0.11898   0.25622   0.25660   1.000
    O95     O    0.61899   0.25622   0.25660   1.000
    O96     O    0.30946   0.35778   0.11981   1.000
    O97     O    0.80947   0.35779   0.11981   1.000
    O98     O    0.32702   0.51539   0.10310   1.000
    O99     O    0.82703   0.51540   0.10310   1.000
    O100    O    0.46520   0.74972   0.62011   1.000
    O101    O    0.96521   0.74972   0.62011   1.000
    O102    O    0.09423   0.64553   0.57972   1.000
    O103    O    0.59423   0.64554   0.57972   1.000
    O104    O    0.18794   0.58290   0.54248   1.000
    O105    O    0.68795   0.58290   0.54248   1.000
    O106    O    0.20602   0.39048   0.59948   1.000
    O107    O    0.70602   0.39048   0.59948   1.000
    O108    O    0.11605   0.28177   0.51386   1.000
    O109    O    0.61605   0.28177   0.51386   1.000
    O110    O    0.12607   0.36764   0.74577   1.000
    O111    O    0.62607   0.36764   0.74577   1.000
    O112    O    0.00955   0.25711   0.75708   1.000
    O113    O    0.50955   0.25711   0.75708   1.000
    O114    O    0.37047   0.35827   0.62000   1.000
    O115    O    0.87047   0.35827   0.62002   1.000
    O116    O    0.43131   0.51587   0.60328   1.000
    O117    O    0.93131   0.51587   0.60329   1.000
    O118    O    0.09083   0.25076   0.87991   1.000
    O119    O    0.59084   0.25077   0.87991   1.000
    O120    O    0.27196   0.35463   0.92046   1.000
    O121    O    0.77196   0.35463   0.92046   1.000
    O122    O    0.39688   0.41713   0.95748   1.000
    O123    O    0.89688   0.41713   0.95748   1.000
    O124    O    0.01008   0.60943   0.90050   1.000
    O125    O    0.51009   0.60942   0.90051   1.000
    O126    O    0.47502   0.71868   0.98633   1.000
    O127    O    0.97503   0.71868   0.98630   1.000
    O128    O    0.44200   0.63277   0.75460   1.000
    O129    O    0.94201   0.63277   0.75462   1.000
    O130    O    0.38102   0.74378   0.74338   1.000
    O131    O    0.88103   0.74378   0.74338   1.000
    O132    O    0.19054   0.64220   0.88020   1.000
    O133    O    0.69055   0.64221   0.88020   1.000
    O134    O    0.17299   0.48458   0.89690   1.000
    O135    O    0.67300   0.48459   0.89690   1.000
    Ts136   Ts   0.95947   0.30702   0.31376   1.000
    Ts137   Ts   0.97336   0.38874   0.32891   1.000
    Ts138   Ts   0.27862   0.29583   0.52844   1.000
    Ts139   Ts   0.77863   0.29583   0.52844   1.000
    Ts140   Ts   0.30533   0.69231   0.18596   1.000
    Ts141   Ts   0.27854   0.61061   0.17058   1.000
    Ts142   Ts   0.80534   0.69232   0.18598   1.000
    Ts143   Ts   0.77855   0.61062   0.17058   1.000
    Ts144   Ts   0.12957   0.70452   0.97191   1.000
    Ts145   Ts   0.62958   0.70453   0.97191   1.000
    Ts146   Ts   0.04054   0.69299   0.68619   1.000
    Ts147   Ts   0.02666   0.61126   0.67104   1.000
    Ts148   Ts   0.54055   0.69299   0.68618   1.000
    Ts149   Ts   0.52666   0.61126   0.67102   1.000
    Ts150   Ts   0.22139   0.70419   0.47156   1.000
    Ts151   Ts   0.72140   0.70420   0.47156   1.000
    Ts152   Ts   0.19467   0.30768   0.81402   1.000
    Ts153   Ts   0.22146   0.38938   0.82942   1.000
    Ts154   Ts   0.69468   0.30769   0.81402   1.000
    Ts155   Ts   0.72147   0.38939   0.82942   1.000
    Ts156   Ts   0.37044   0.29548   0.02808   1.000
    Ts157   Ts   0.87044   0.29548   0.02808   1.000
    Ts158   Ts   0.45947   0.30702   0.31376   1.000
    Ts159   Ts   0.47335   0.38875   0.32890   1.000
    Og160   Og   0.37439   0.43750   0.39774   1.000
    Og161   Og   0.87440   0.43750   0.39774   1.000
    Og162   Og   0.38096   0.62814   0.42194   1.000
    Og163   Og   0.88096   0.62814   0.42194   1.000
    Og164   Og   0.45456   0.66604   0.29779   1.000
    Og165   Og   0.95457   0.66604   0.29780   1.000
    Og166   Og   0.05186   0.56060   0.34998   1.000
    Og167   Og   0.55187   0.56061   0.34998   1.000
    Og168   Og   0.15540   0.56205   0.10187   1.000
    Og169   Og   0.65541   0.56206   0.10187   1.000
    Og170   Og   0.06732   0.37139   0.07771   1.000
    Og171   Og   0.56733   0.37140   0.07771   1.000
    Og172   Og   0.12179   0.33326   0.20168   1.000
    Og173   Og   0.62180   0.33326   0.20171   1.000
    Og174   Og   0.27190   0.43876   0.14960   1.000
    Og175   Og   0.77191   0.43877   0.14960   1.000
    Og176   Og   0.12562   0.56252   0.60225   1.000
    Og177   Og   0.62563   0.56252   0.60225   1.000
    Og178   Og   0.11906   0.37188   0.57804   1.000
    Og179   Og   0.61907   0.37188   0.57804   1.000
    Og180   Og   0.04545   0.33395   0.70217   1.000
    Og181   Og   0.54545   0.33395   0.70217   1.000
    Og182   Og   0.44815   0.43940   0.65001   1.000
    Og183   Og   0.94816   0.43940   0.65001   1.000
    Og184   Og   0.34460   0.43794   0.89809   1.000
    Og185   Og   0.84461   0.43794   0.89812   1.000
    Og186   Og   0.43268   0.62860   0.92228   1.000
    Og187   Og   0.93269   0.62861   0.92228   1.000
    Og188   Og   0.37821   0.66673   0.79828   1.000
    Og189   Og   0.87822   0.66674   0.79829   1.000
    Og190   Og   0.22810   0.56121   0.85040   1.000
    Og191   Og   0.72811   0.56122   0.85040   1.000
loop_
    _geom_bond_atom_site_label_1
    _geom_bond_atom_site_label_2
    _geom_bond_distance
    _geom_bond_site_symmetry_2
    _ccdc_geom_bond_type
    O90    C42       1.26113      .   S
    O91    C43       1.26112      .   S
    O86    C40       1.27243      .   S
    O86    Zn5       1.98824  1_554   S
    O87    C41       1.27243      .   S
    O87    Zn6       1.98822  1_554   S
    Zn13   O88       1.95189      .   S
    Zn13   O96       2.00165      .   S
    Zn13   O122      1.98787  1_554   S
    Zn14   O89       1.95191      .   S
    Zn14   O97       2.00163      .   S
    Zn14   O123      1.98788  1_554   S
    H22    O82       1.00319      .   S
    H23    O83       1.00248      .   S
    C42    O89       1.28240  1_455   S
    C43    O88       1.28260      .   S
    O85    C41       1.26726      .   S
    O85    Zn4       2.08997      .   S
    O84    C40       1.26726      .   S
    O84    Zn3       2.08994      .   S
    O98    C46       1.25477      .   S
    O98    Zn3       2.15312      .   S
    O99    C47       1.25476      .   S
    O99    Zn4       2.15307      .   S
    O96    C46       1.28402      .   S
    O97    C47       1.28402      .   S
    O82    H20       1.01329      .   S
    O83    H21       1.01397      .   S
    Zn3    O74       2.09575      .   S
    Zn4    O75       2.09581      .   S
    C44    O92       1.27343      .   S
    C44    O94       1.27040      .   S
    C45    O93       1.27325      .   S
    C45    O95       1.26993      .   S
    O76    C36       1.27010      .   S
    O77    C37       1.27006      .   S
    O92    Zn0       2.09419  1_455   S
    O93    Zn19      2.09435      .   S
    O74    C36       1.27308      .   S
    O75    C37       1.27309      .   S
    Zn19   O81       2.15115      .   S
    Zn19   O66       2.09014      .   S
    Zn0    O80       2.15104  1_655   S
    Zn0    O67       2.09016      .   S
    H16    O65       1.01373      .   S
    H15    O64       1.01375      .   S
    C39    O79       1.28407      .   S
    C39    O81       1.25464      .   S
    C38    O78       1.28407      .   S
    C38    O80       1.25466      .   S
    O64    H17       1.00236      .   S
    O65    H18       1.00100      .   S
    O78    Zn9       1.99852      .   S
    O79    Zn10      1.99854      .   S
    O71    C35       1.28273      .   S
    O71    Zn10      1.95439      .   S
    O70    C34       1.28275      .   S
    O70    Zn9       1.95439      .   S
    C33    O67       1.26718      .   S
    C33    O69       1.27253      .   S
    C32    O66       1.26718      .   S
    C32    O68       1.27253      .   S
    C34    O72       1.26128      .   S
    C35    O73       1.26105      .   S
    Zn10   O105      1.98638      .   S
    Zn9    O104      1.98638      .   S
    O69    Zn2       1.98643      .   S
    O68    Zn1       1.98647      .   S
    O108   C50       1.26128      .   S
    O109   C51       1.26128      .   S
    O104   C48       1.27246      .   S
    O105   C49       1.27246      .   S
    Zn2    O107      1.95435      .   S
    Zn2    O115      1.99852      .   S
    Zn1    O106      1.95434      .   S
    Zn1    O114      1.99831      .   S
    H27    O101      1.00232      .   S
    H26    O100      1.00230      .   S
    C50    O106      1.28273      .   S
    C51    O107      1.28273      .   S
    O102   C48       1.26714      .   S
    O102   Zn7       2.08915      .   S
    O103   C49       1.26714      .   S
    O103   Zn8       2.08893      .   S
    O116   C54       1.25472      .   S
    O116   Zn8       2.15060      .   S
    O117   C55       1.25463      .   S
    O117   Zn7       2.15055  1_655   S
    O114   C54       1.28409      .   S
    O115   C55       1.28407      .   S
    O100   H24       1.01379      .   S
    O101   H25       1.01379      .   S
    Zn8    O128      2.09542      .   S
    Zn7    O129      2.09522  1_455   S
    C53    O111      1.27309      .   S
    C53    O113      1.27009      .   S
    C52    O110      1.27309      .   S
    C52    O112      1.27010      .   S
    O131   C61       1.27014      .   S
    O130   C60       1.27008      .   S
    O110   Zn11      2.09598      .   S
    O111   Zn12      2.09595      .   S
    O128   C60       1.27333      .   S
    O129   C61       1.27329      .   S
    H28    O118      1.01400      .   S
    H29    O119      1.01399      .   S
    Zn11   O134      2.15284      .   S
    Zn11   O120      2.08997      .   S
    Zn12   O135      2.15285      .   S
    Zn12   O121      2.08994      .   S
    C62    O132      1.28399      .   S
    C62    O134      1.25473      .   S
    C63    O133      1.28401      .   S
    C63    O135      1.25475      .   S
    O119   H31       1.00233      .   S
    O118   H30       1.00232      .   S
    O133   Zn6       2.00139      .   S
    O132   Zn5       2.00135      .   S
    O124   C59       1.28247  1_455   S
    O124   Zn5       1.95182      .   S
    O125   C58       1.28260      .   S
    O125   Zn6       1.95173      .   S
    C56    O120      1.26728      .   S
    C56    O122      1.27251      .   S
    C57    O121      1.26728      .   S
    C57    O123      1.27250      .   S
    C58    O126      1.26112      .   S
    C59    O127      1.26077      .   S
    O64    Zn0       2.08837  1_455   S
    O65    Zn19      2.08854      .   S
    O82    Zn3       2.09036      .   S
    O83    Zn4       2.09032      .   S
    O100   Zn8       2.08784      .   S
    O101   Zn7       2.08783  1_655   S
    O118   Zn11      2.09042      .   S
    O119   Zn12      2.09044      .   S
    Zn0    Ts136     0.73471      .   S
    Zn0    Ts137     0.76499      .   S
    Zn1    Ts138     0.69700      .   S
    Zn2    Ts139     0.69700      .   S
    Zn3    Ts140     0.73351      .   S
    Zn3    Ts141     0.76242      .   S
    Zn4    Ts142     0.73362      .   S
    Zn4    Ts143     0.76242      .   S
    Zn5    Ts144     0.69773      .   S
    Zn6    Ts145     0.69774      .   S
    Zn7    Ts146     0.73492      .   S
    Zn7    Ts147     0.76519      .   S
    Zn8    Ts148     0.73496      .   S
    Zn8    Ts149     0.76521      .   S
    Zn9    Ts150     0.69698      .   S
    Zn10   Ts151     0.69698      .   S
    Zn11   Ts152     0.73363      .   S
    Zn11   Ts153     0.76245      .   S
    Zn12   Ts154     0.73365      .   S
    Zn12   Ts155     0.76244      .   S
    Zn13   Ts156     0.69774      .   S
    Zn14   Ts157     0.69773      .   S
    Zn19   Ts158     0.73471      .   S
    Zn19   Ts159     0.76499      .   S
    C32    Og160     0.50839      .   S
    C33    Og161     0.50840      .   S
    C34    Og162     0.51013      .   S
    C35    Og163     0.51012      .   S
    C36    Og164     0.51261      .   S
    C37    Og165     0.51262      .   S
    C38    Og166     0.51353      .   S
    C39    Og167     0.51352      .   S
    C40    Og168     0.50860      .   S
    C41    Og169     0.50860      .   S
    C42    Og170     0.50973      .   S
    C43    Og171     0.50974      .   S
    C44    Og172     0.51277      .   S
    C45    Og173     0.51301      .   S
    C46    Og174     0.51366      .   S
    C47    Og175     0.51365      .   S
    C48    Og176     0.50844      .   S
    C49    Og177     0.50845      .   S
    C50    Og178     0.51012      .   S
    C51    Og179     0.51011      .   S
    C52    Og180     0.51264      .   S
    C53    Og181     0.51263      .   S
    C54    Og182     0.51350      .   S
    C55    Og183     0.51350      .   S
    C56    Og184     0.50897      .   S
    C57    Og185     0.50858      .   S
    C58    Og186     0.50974      .   S
    C59    Og187     0.50974      .   S
    C60    Og188     0.51302      .   S
    C61    Og189     0.51297      .   S
    C62    Og190     0.51367      .   S
    C63    Og191     0.51367      .   S
