# CIF file generated by openbabel 2.4.90, see http://openbabel.sf.net
data_I
_chemical_name_common ''
_cell_length_a 18.591
_cell_length_b 14.43
_cell_length_c 17.459
_cell_angle_alpha 99.039
_cell_angle_beta 89.947
_cell_angle_gamma 108.708
_space_group_name_H-M_alt 'P 1'
_space_group_name_Hall 'P 1'
loop_
    _symmetry_equiv_pos_as_xyz
    x,y,z
loop_
    _atom_site_label
    _atom_site_type_symbol
    _atom_site_fract_x
    _atom_site_fract_y
    _atom_site_fract_z
    _atom_site_occupancy
    N0      N    0.16941   0.43166   0.15112   1.000
    N1      N    0.28377   0.01514   0.13451   1.000
    N2      N    0.77657   0.98460   0.36581   1.000
    N3      N    0.27655   0.98460   0.36580   1.000
    N4      N    0.45303   0.56761   0.34832   1.000
    N5      N    0.66942   0.43167   0.15111   1.000
    N6      N    0.71625   0.98487   0.86546   1.000
    N7      N    0.22346   0.01541   0.63417   1.000
    N8      N    0.21625   0.98487   0.86547   1.000
    N9      N    0.54699   0.43239   0.65164   1.000
    N10     N    0.95303   0.56761   0.34833   1.000
    N11     N    0.72347   0.01541   0.63418   1.000
    N12     N    0.78377   0.01514   0.13451   1.000
    N13     N    0.04699   0.43239   0.65165   1.000
    N14     N    0.33059   0.56832   0.84886   1.000
    N15     N    0.83060   0.56833   0.84888   1.000
    Zr16    Zr   0.75001   0.50000   0.99999   1.000
    O17     O    0.76930   0.31402   0.97112   1.000
    O18     O    0.93764   0.45285   0.05844   1.000
    O19     O    0.56237   0.54715   0.94155   1.000
    O20     O    0.70549   0.49534   0.06559   1.000
    O21     O    0.73260   0.46756   0.07743   1.000
    O22     O    0.64677   0.44289   0.83557   1.000
    O23     O    0.79453   0.50466   0.93440   1.000
    O24     O    0.85325   0.55711   0.16441   1.000
    O25     O    0.73050   0.32568   0.85884   1.000
    O26     O    0.76733   0.49454   0.91829   1.000
    O27     O    0.73071   0.68598   0.02887   1.000
    O28     O    0.76742   0.53244   0.92256   1.000
    O29     O    0.76952   0.67433   0.14115   1.000
    O30     O    0.73269   0.50546   0.08170   1.000
    Zr31    Zr   0.25000   0.49999   0.99999   1.000
    O32     O    0.23049   0.32567   0.85884   1.000
    O33     O    0.26732   0.49454   0.91828   1.000
    O34     O    0.35324   0.55710   0.16440   1.000
    O35     O    0.26951   0.67433   0.14114   1.000
    O36     O    0.23268   0.50545   0.08170   1.000
    O37     O    0.23071   0.68598   0.02886   1.000
    O38     O    0.20548   0.49533   0.06559   1.000
    O39     O    0.06237   0.54715   0.94155   1.000
    O40     O    0.43764   0.45285   0.05844   1.000
    O41     O    0.29452   0.50466   0.93438   1.000
    O42     O    0.23259   0.46755   0.07743   1.000
    O43     O    0.26741   0.53243   0.92256   1.000
    O44     O    0.26930   0.31402   0.97111   1.000
    O45     O    0.14677   0.44289   0.83557   1.000
    Zr46    Zr   0.00001   0.50001   0.49999   1.000
    O47     O    0.21091   0.54684   0.44131   1.000
    O48     O    0.78911   0.45317   0.55867   1.000
    O49     O    0.00150   0.46791   0.57767   1.000
    O50     O    0.04235   0.49565   0.56583   1.000
    O51     O    0.99852   0.53210   0.42231   1.000
    O52     O    0.02020   0.50580   0.58197   1.000
    O53     O    0.06772   0.67457   0.64111   1.000
    O54     O    0.88814   0.31404   0.47131   1.000
    O55     O    0.92521   0.55747   0.66467   1.000
    O56     O    0.07481   0.44254   0.33532   1.000
    O57     O    0.11188   0.68597   0.52868   1.000
    O58     O    0.95767   0.50436   0.43416   1.000
    O59     O    0.93230   0.32544   0.35887   1.000
    O60     O    0.97982   0.49420   0.41801   1.000
    Zr61    Zr   0.50001   0.50001   0.49999   1.000
    O62     O    0.61189   0.68597   0.52868   1.000
    O63     O    0.47982   0.49420   0.41800   1.000
    O64     O    0.43230   0.32544   0.35887   1.000
    O65     O    0.57481   0.44254   0.33532   1.000
    O66     O    0.45767   0.50436   0.43415   1.000
    O67     O    0.49852   0.53210   0.42231   1.000
    O68     O    0.50149   0.46791   0.57767   1.000
    O69     O    0.38814   0.31404   0.47130   1.000
    O70     O    0.56772   0.67457   0.64110   1.000
    O71     O    0.52020   0.50581   0.58196   1.000
    O72     O    0.28910   0.45317   0.55867   1.000
    O73     O    0.71091   0.54684   0.44131   1.000
    O74     O    0.54235   0.49565   0.56583   1.000
    O75     O    0.42520   0.55746   0.66466   1.000
loop_
    _geom_bond_atom_site_label_1
    _geom_bond_atom_site_label_2
    _geom_bond_distance
    _geom_bond_site_symmetry_2
    _ccdc_geom_bond_type
    Zr16   O17       2.78869      .   S
    N6     O17       4.60220  1_565   S
    Zr16   O18       3.92683  1_556   S
    N0     O18       4.72129  1_455   S
    Zr16   O19       3.92692      .   S
    N14    O19       4.72141      .   S
    Zr16   O20       1.40984  1_556   S
    N5     O20       1.88607      .   S
    Zr16   O21       1.50078  1_556   S
    N5     O21       1.76609      .   S
    Zr16   O22       3.29480      .   S
    N9     O22       3.66796      .   S
    Zr16   O23       1.40986      .   S
    N15    O23       1.88610      .   S
    Zr16   O24       3.29472  1_556   S
    N10    O24       3.66786      .   S
    Zr16   O25       3.16242      .   S
    N11    O25       5.43641      .   S
    Zr16   O26       1.45767      .   S
    N15    O26       1.89354      .   S
    Zr16   O27       2.78875  1_556   S
    N12    O27       4.60217  1_545   S
    Zr16   O28       1.50076      .   S
    N15    O28       1.76614      .   S
    Zr16   O29       3.16250  1_556   S
    N2     O29       5.43642      .   S
    Zr16   O30       1.45768  1_556   S
    N5     O30       1.89349      .   S
    Zr31   O32       3.16240      .   S
    N7     O32       5.43639      .   S
    Zr31   O33       1.45768      .   S
    N14    O33       1.89358      .   S
    Zr31   O34       3.29469  1_556   S
    N4     O34       3.66784      .   S
    Zr31   O35       3.16244  1_556   S
    N3     O35       5.43647      .   S
    Zr31   O36       1.45776  1_556   S
    N0     O36       1.89361      .   S
    Zr31   O37       2.78875  1_556   S
    N1     O37       4.60224  1_545   S
    Zr31   O38       1.40992  1_556   S
    N0     O38       1.88619      .   S
    Zr31   O39       3.92681      .   S
    N15    O39       4.72125  1_655   S
    Zr31   O40       3.92692  1_556   S
    N5     O40       4.72136      .   S
    Zr31   O41       1.41001      .   S
    N14    O41       1.88601      .   S
    Zr31   O42       1.50087  1_556   S
    N0     O42       1.76620      .   S
    Zr31   O43       1.50075      .   S
    N14    O43       1.76621      .   S
    Zr31   O44       2.78870      .   S
    N8     O44       4.60216  1_565   S
    Zr31   O45       3.29474      .   S
    N13    O45       3.66783      .   S
    Zr46   O47       3.92307      .   S
    N4     O47       4.71815      .   S
    Zr46   O48       3.92297  1_455   S
    N9     O48       4.71798      .   S
    Zr46   O49       1.50341      .   S
    N13    O49       1.77029      .   S
    Zr46   O50       1.41452      .   S
    N13    O50       1.88839      .   S
    Zr46   O51       1.50340  1_455   S
    N10    O51       1.77032      .   S
    Zr46   O52       1.46269      .   S
    N13    O52       1.89595      .   S
    Zr46   O53       3.16563      .   S
    N8     O53       5.44011      .   S
    Zr46   O54       2.78865  1_455   S
    N2     O54       4.60695  1_565   S
    Zr46   O55       3.29701  1_455   S
    N15    O55       3.67008      .   S
    Zr46   O56       3.29707      .   S
    N0     O56       3.66996      .   S
    Zr46   O57       2.78872      .   S
    N7     O57       4.60697  1_545   S
    Zr46   O58       1.41453  1_455   S
    N10    O58       1.88843      .   S
    Zr46   O59       3.16579  1_455   S
    N12    O59       5.44018      .   S
    Zr46   O60       1.46286  1_455   S
    N10    O60       1.89585      .   S
    Zr61   O62       2.78877      .   S
    N11    O62       4.60701  1_545   S
    Zr61   O63       1.46290      .   S
    N4     O63       1.89591      .   S
    Zr61   O64       3.16575      .   S
    N1     O64       5.44011      .   S
    Zr61   O65       3.29699      .   S
    N5     O65       3.67011      .   S
    Zr61   O66       1.41456      .   S
    N4     O66       1.88853      .   S
    Zr61   O67       1.50342      .   S
    N4     O67       1.77044      .   S
    Zr61   O68       1.50342      .   S
    N9     O68       1.77029      .   S
    Zr61   O69       2.78869      .   S
    N3     O69       4.60702  1_565   S
    Zr61   O70       3.16562      .   S
    N6     O70       5.44012      .   S
    Zr61   O71       1.46265      .   S
    N9     O71       1.89598      .   S
    Zr61   O72       3.92303      .   S
    N13    O72       4.71802      .   S
    Zr61   O73       3.92307      .   S
    N10    O73       4.71808      .   S
    Zr61   O74       1.41456      .   S
    N9     O74       1.88836      .   S
    Zr61   O75       3.29700      .   S
    N14    O75       3.67001      .   S
