# CIF file generated by openbabel 2.4.90, see http://openbabel.sf.net
data_I
_chemical_name_common ''
_cell_length_a 18.591
_cell_length_b 14.43
_cell_length_c 17.459
_cell_angle_alpha 99.039
_cell_angle_beta 89.947
_cell_angle_gamma 108.708
_space_group_name_H-M_alt 'P 1'
_space_group_name_Hall 'P 1'
loop_
    _symmetry_equiv_pos_as_xyz
    x,y,z
loop_
    _atom_site_label
    _atom_site_type_symbol
    _atom_site_fract_x
    _atom_site_fract_y
    _atom_site_fract_z
    _atom_site_occupancy
    Zr0     Zr   0.48760   0.34786   0.33930   1.000
    Zr1     Zr   0.98760   0.34785   0.33930   1.000
    Zr2     Zr   0.28392   0.34436   0.54646   1.000
    Zr3     Zr   0.78393   0.34436   0.54646   1.000
    Zr4     Zr   0.31301   0.65152   0.16034   1.000
    Zr5     Zr   0.81302   0.65153   0.16034   1.000
    Zr6     Zr   0.11059   0.65601   0.95378   1.000
    Zr7     Zr   0.61059   0.65602   0.95378   1.000
    Zr8     Zr   0.01241   0.65216   0.66062   1.000
    Zr9     Zr   0.51242   0.65216   0.66060   1.000
    Zr10    Zr   0.21609   0.65566   0.45354   1.000
    Zr11    Zr   0.71610   0.65566   0.45354   1.000
    Zr12    Zr   0.18699   0.34847   0.83966   1.000
    Zr13    Zr   0.68700   0.34848   0.83966   1.000
    Zr14    Zr   0.38942   0.34399   0.04620   1.000
    Zr15    Zr   0.88942   0.34400   0.04620   1.000
    Zr16    Zr   0.07398   0.25056   0.33942   1.000
    Zr17    Zr   0.57398   0.25056   0.33942   1.000
    Zr18    Zr   0.06244   0.26931   0.43219   1.000
    Zr19    Zr   0.56245   0.26931   0.43210   1.000
    Zr20    Zr   0.44816   0.74852   0.16030   1.000
    Zr21    Zr   0.94817   0.74854   0.16037   1.000
    Zr22    Zr   0.42740   0.73066   0.06760   1.000
    Zr23    Zr   0.92742   0.73066   0.06766   1.000
    Zr24    Zr   0.42603   0.74945   0.66058   1.000
    Zr25    Zr   0.92604   0.74945   0.66058   1.000
    Zr26    Zr   0.43757   0.73070   0.56781   1.000
    Zr27    Zr   0.93758   0.73070   0.56781   1.000
    Zr28    Zr   0.05184   0.25142   0.83960   1.000
    Zr29    Zr   0.55185   0.25143   0.83960   1.000
    Zr30    Zr   0.07257   0.26933   0.93231   1.000
    Zr31    Zr   0.57258   0.26934   0.93231   1.000
    Zr32    Zr   0.36796   0.41287   0.41660   1.000
    Zr33    Zr   0.86796   0.41287   0.41660   1.000
    Zr34    Zr   0.36166   0.64492   0.43195   1.000
    Zr35    Zr   0.86166   0.64492   0.43195   1.000
    Zr36    Zr   0.44383   0.67648   0.27476   1.000
    Zr37    Zr   0.94383   0.67649   0.27477   1.000
    Zr38    Zr   0.07350   0.56025   0.36807   1.000
    Zr39    Zr   0.57351   0.56026   0.36807   1.000
    Zr40    Zr   0.16117   0.58681   0.08310   1.000
    Zr41    Zr   0.66118   0.58682   0.08310   1.000
    Zr42    Zr   0.03966   0.35473   0.06780   1.000
    Zr43    Zr   0.53967   0.35473   0.06780   1.000
    Zr44    Zr   0.10577   0.32282   0.22470   1.000
    Zr45    Zr   0.60578   0.32282   0.22475   1.000
    Zr46    Zr   0.29382   0.43915   0.13158   1.000
    Zr47    Zr   0.79382   0.43916   0.13158   1.000
    Zr48    Zr   0.13206   0.58715   0.58339   1.000
    Zr49    Zr   0.63206   0.58715   0.58339   1.000
    Zr50    Zr   0.13836   0.35510   0.56803   1.000
    Zr51    Zr   0.63837   0.35510   0.56803   1.000
    Zr52    Zr   0.05618   0.32350   0.72520   1.000
    Zr53    Zr   0.55619   0.32350   0.72520   1.000
    Zr54    Zr   0.42651   0.43975   0.63193   1.000
    Zr55    Zr   0.92651   0.43975   0.63193   1.000
    Zr56    Zr   0.33883   0.41318   0.91689   1.000
    Zr57    Zr   0.83884   0.41318   0.91689   1.000
    Zr58    Zr   0.46034   0.64527   0.93219   1.000
    Zr59    Zr   0.96035   0.64528   0.93219   1.000
    Zr60    Zr   0.39422   0.67718   0.77524   1.000
    Zr61    Zr   0.89424   0.67718   0.77525   1.000
    Zr62    Zr   0.20619   0.56083   0.86842   1.000
    Zr63    Zr   0.70620   0.56084   0.86842   1.000
    Zr64    Zr   0.03481   0.25029   0.37989   1.000
    Zr65    Zr   0.53481   0.25029   0.37989   1.000
    Zr66    Zr   0.40579   0.35449   0.42029   1.000
    Zr67    Zr   0.90579   0.35448   0.42029   1.000
    Zr68    Zr   0.31208   0.41713   0.45752   1.000
    Zr69    Zr   0.81208   0.41713   0.45752   1.000
    Zr70    Zr   0.29399   0.60954   0.40051   1.000
    Zr71    Zr   0.79400   0.60954   0.40051   1.000
    Zr72    Zr   0.38397   0.71824   0.48612   1.000
    Zr73    Zr   0.88398   0.71824   0.48610   1.000
    Zr74    Zr   0.37393   0.63237   0.25422   1.000
    Zr75    Zr   0.87394   0.63237   0.25422   1.000
    Zr76    Zr   0.49047   0.74285   0.24286   1.000
    Zr77    Zr   0.99047   0.74286   0.24288   1.000
    Zr78    Zr   0.12954   0.64174   0.37999   1.000
    Zr79    Zr   0.62954   0.64174   0.37999   1.000
    Zr80    Zr   0.06870   0.48414   0.39672   1.000
    Zr81    Zr   0.56871   0.48414   0.39672   1.000
    Zr82    Zr   0.40917   0.74921   0.12007   1.000
    Zr83    Zr   0.90918   0.74922   0.12008   1.000
    Zr84    Zr   0.22804   0.64537   0.07954   1.000
    Zr85    Zr   0.72805   0.64538   0.07954   1.000
    Zr86    Zr   0.10312   0.58287   0.04252   1.000
    Zr87    Zr   0.60313   0.58288   0.04252   1.000
    Zr88    Zr   0.48993   0.39058   0.09949   1.000
    Zr89    Zr   0.98993   0.39058   0.09949   1.000
    Zr90    Zr   0.02498   0.28133   0.01365   1.000
    Zr91    Zr   0.52499   0.28134   0.01365   1.000
    Zr92    Zr   0.05800   0.36723   0.24537   1.000
    Zr93    Zr   0.55801   0.36723   0.24537   1.000
    Zr94    Zr   0.11898   0.25622   0.25660   1.000
    Zr95    Zr   0.61899   0.25622   0.25660   1.000
    Zr96    Zr   0.30946   0.35778   0.11981   1.000
    Zr97    Zr   0.80947   0.35779   0.11981   1.000
    Zr98    Zr   0.32702   0.51539   0.10310   1.000
    Zr99    Zr   0.82703   0.51540   0.10310   1.000
    Zr100   Zr   0.46520   0.74972   0.62011   1.000
    Zr101   Zr   0.96521   0.74972   0.62011   1.000
    Zr102   Zr   0.09423   0.64553   0.57972   1.000
    Zr103   Zr   0.59423   0.64554   0.57972   1.000
    Zr104   Zr   0.18794   0.58290   0.54248   1.000
    Zr105   Zr   0.68795   0.58290   0.54248   1.000
    Zr106   Zr   0.20602   0.39048   0.59948   1.000
    Zr107   Zr   0.70602   0.39048   0.59948   1.000
    Zr108   Zr   0.11605   0.28177   0.51386   1.000
    Zr109   Zr   0.61605   0.28177   0.51386   1.000
    Zr110   Zr   0.12607   0.36764   0.74577   1.000
    Zr111   Zr   0.62607   0.36764   0.74577   1.000
    Zr112   Zr   0.00955   0.25711   0.75708   1.000
    Zr113   Zr   0.50955   0.25711   0.75708   1.000
    Zr114   Zr   0.37047   0.35827   0.62000   1.000
    Zr115   Zr   0.87047   0.35827   0.62002   1.000
    Zr116   Zr   0.43131   0.51587   0.60328   1.000
    Zr117   Zr   0.93131   0.51587   0.60329   1.000
    Zr118   Zr   0.09083   0.25076   0.87991   1.000
    Zr119   Zr   0.59084   0.25077   0.87991   1.000
    Zr120   Zr   0.27196   0.35463   0.92046   1.000
    Zr121   Zr   0.77196   0.35463   0.92046   1.000
    Zr122   Zr   0.39688   0.41713   0.95748   1.000
    Zr123   Zr   0.89688   0.41713   0.95748   1.000
    Zr124   Zr   0.01008   0.60943   0.90050   1.000
    Zr125   Zr   0.51009   0.60942   0.90051   1.000
    Zr126   Zr   0.47502   0.71868   0.98633   1.000
    Zr127   Zr   0.97503   0.71868   0.98630   1.000
    Zr128   Zr   0.44200   0.63277   0.75460   1.000
    Zr129   Zr   0.94201   0.63277   0.75462   1.000
    Zr130   Zr   0.38102   0.74378   0.74338   1.000
    Zr131   Zr   0.88103   0.74378   0.74338   1.000
    Zr132   Zr   0.19054   0.64220   0.88020   1.000
    Zr133   Zr   0.69055   0.64221   0.88020   1.000
    Zr134   Zr   0.17299   0.48458   0.89690   1.000
    Zr135   Zr   0.67300   0.48459   0.89690   1.000
    O136    O    0.03232   0.31803   0.04073   1.000
    O137    O    0.53233   0.31804   0.04073   1.000
    O138    O    0.13215   0.58484   0.06281   1.000
    O139    O    0.10686   0.61944   0.99815   1.000
    O140    O    0.63216   0.58485   0.06281   1.000
    O141    O    0.60686   0.61945   0.99815   1.000
    O142    O    0.43967   0.36729   0.07285   1.000
    O143    O    0.34944   0.35089   0.08301   1.000
    O144    O    0.39315   0.38056   0.00184   1.000
    O145    O    0.93968   0.36729   0.07285   1.000
    O146    O    0.84945   0.35089   0.08301   1.000
    O147    O    0.89315   0.38056   0.00184   1.000
    O148    O    0.41828   0.73993   0.09384   1.000
    O149    O    0.91830   0.73994   0.09387   1.000
    O150    O    0.01480   0.37265   0.08365   1.000
    O151    O    0.51480   0.37266   0.08365   1.000
    O152    O    0.69462   0.61610   0.08132   1.000
    O153    O    0.77054   0.64845   0.11994   1.000
    O154    O    0.19461   0.61609   0.08132   1.000
    O155    O    0.27053   0.64844   0.11994   1.000
    O156    O    0.31042   0.47727   0.11734   1.000
    O157    O    0.32001   0.58346   0.13172   1.000
    O158    O    0.81042   0.47728   0.11734   1.000
    O159    O    0.82002   0.58346   0.13172   1.000
    O160    O    0.30164   0.39846   0.12570   1.000
    O161    O    0.80165   0.39847   0.12570   1.000
    O162    O    0.42866   0.74886   0.14019   1.000
    O163    O    0.92867   0.74888   0.14023   1.000
    O164    O    0.34347   0.64194   0.20728   1.000
    O165    O    0.84348   0.64195   0.20728   1.000
    O166    O    0.08189   0.34502   0.23504   1.000
    O167    O    0.11238   0.28952   0.24065   1.000
    O168    O    0.58189   0.34503   0.23506   1.000
    O169    O    0.61239   0.28952   0.24068   1.000
    O170    O    0.46715   0.70966   0.25881   1.000
    O171    O    0.96715   0.70967   0.25883   1.000
    O172    O    0.02280   0.35754   0.29234   1.000
    O173    O    0.52280   0.35755   0.29234   1.000
    O174    O    0.40888   0.65443   0.26449   1.000
    O175    O    0.90889   0.65443   0.26450   1.000
    O176    O    0.52815   0.41600   0.36801   1.000
    O177    O    0.44669   0.35117   0.37980   1.000
    O178    O    0.02815   0.41600   0.36801   1.000
    O179    O    0.94670   0.35117   0.37980   1.000
    O180    O    0.55440   0.25043   0.35966   1.000
    O181    O    0.05439   0.25042   0.35966   1.000
    O182    O    0.60153   0.60100   0.37403   1.000
    O183    O    0.57111   0.52220   0.38240   1.000
    O184    O    0.10152   0.60100   0.37403   1.000
    O185    O    0.07110   0.52220   0.38240   1.000
    O186    O    0.04862   0.25980   0.40604   1.000
    O187    O    0.54863   0.25980   0.40600   1.000
    O188    O    0.17282   0.64870   0.41677   1.000
    O189    O    0.67282   0.64870   0.41677   1.000
    O190    O    0.82783   0.62723   0.41623   1.000
    O191    O    0.75505   0.63260   0.42703   1.000
    O192    O    0.32783   0.62723   0.41623   1.000
    O193    O    0.25504   0.63260   0.42703   1.000
    O194    O    0.88688   0.38368   0.41845   1.000
    O195    O    0.84002   0.41500   0.43706   1.000
    O196    O    0.38687   0.38368   0.41845   1.000
    O197    O    0.34002   0.41500   0.43706   1.000
    O198    O    0.37281   0.68158   0.45904   1.000
    O199    O    0.87282   0.68158   0.45903   1.000
    O200    O    0.70202   0.61928   0.49801   1.000
    O201    O    0.20202   0.61928   0.49801   1.000
    O202    O    0.79800   0.38074   0.50199   1.000
    O203    O    0.29800   0.38075   0.50199   1.000
    O204    O    0.12720   0.31843   0.54095   1.000
    O205    O    0.62721   0.31844   0.54095   1.000
    O206    O    0.16000   0.58502   0.56293   1.000
    O207    O    0.66001   0.58503   0.56293   1.000
    O208    O    0.74498   0.36742   0.57297   1.000
    O209    O    0.82720   0.35132   0.58324   1.000
    O210    O    0.24497   0.36742   0.57297   1.000
    O211    O    0.32719   0.35132   0.58323   1.000
    O212    O    0.95140   0.74021   0.59396   1.000
    O213    O    0.45139   0.74021   0.59396   1.000
    O214    O    0.17219   0.37279   0.58376   1.000
    O215    O    0.67220   0.37279   0.58376   1.000
    O216    O    0.11314   0.61634   0.58156   1.000
    O217    O    0.05332   0.64884   0.62017   1.000
    O218    O    0.61315   0.61634   0.58156   1.000
    O219    O    0.55333   0.64885   0.62016   1.000
    O220    O    0.42891   0.47781   0.61761   1.000
    O221    O    0.47186   0.58401   0.63194   1.000
    O222    O    0.92891   0.47781   0.61761   1.000
    O223    O    0.97186   0.58401   0.63196   1.000
    O224    O    0.39849   0.39901   0.62597   1.000
    O225    O    0.89849   0.39901   0.62598   1.000
    O226    O    0.44561   0.74959   0.64035   1.000
    O227    O    0.94562   0.74959   0.64035   1.000
    O228    O    0.47721   0.64246   0.70760   1.000
    O229    O    0.97721   0.64246   0.70762   1.000
    O230    O    0.59113   0.34557   0.73549   1.000
    O231    O    0.53287   0.29030   0.74114   1.000
    O232    O    0.09113   0.34557   0.73549   1.000
    O233    O    0.03286   0.29030   0.74114   1.000
    O234    O    0.88763   0.71048   0.75932   1.000
    O235    O    0.38762   0.71048   0.75931   1.000
    O236    O    0.15653   0.35806   0.79272   1.000
    O237    O    0.65654   0.35806   0.79272   1.000
    O238    O    0.41811   0.65497   0.76492   1.000
    O239    O    0.91812   0.65498   0.76494   1.000
    O240    O    0.07134   0.25109   0.85976   1.000
    O241    O    0.57134   0.25110   0.85976   1.000
    O242    O    0.17999   0.41653   0.86828   1.000
    O243    O    0.22947   0.35155   0.88006   1.000
    O244    O    0.68000   0.41654   0.86828   1.000
    O245    O    0.72948   0.35156   0.88006   1.000
    O246    O    0.19837   0.60151   0.87431   1.000
    O247    O    0.18959   0.52271   0.88266   1.000
    O248    O    0.69837   0.60152   0.87431   1.000
    O249    O    0.68960   0.52272   0.88266   1.000
    O250    O    0.58171   0.26005   0.90611   1.000
    O251    O    0.08170   0.26005   0.90611   1.000
    O252    O    0.65057   0.64911   0.91699   1.000
    O253    O    0.15057   0.64911   0.91699   1.000
    O254    O    0.98521   0.62735   0.91635   1.000
    O255    O    0.06034   0.63272   0.92714   1.000
    O256    O    0.48521   0.62735   0.91635   1.000
    O257    O    0.56034   0.63272   0.92715   1.000
    O258    O    0.30539   0.38390   0.91868   1.000
    O259    O    0.36786   0.41515   0.93719   1.000
    O260    O    0.80540   0.38391   0.91868   1.000
    O261    O    0.86786   0.41516   0.93719   1.000
    O262    O    0.46768   0.68198   0.95926   1.000
    O263    O    0.96769   0.68198   0.95925   1.000
    O264    O    0.01120   0.29907   0.35960   1.000
    O265    O    0.51120   0.29907   0.35960   1.000
    O266    O    0.36109   0.70036   0.14021   1.000
    O267    O    0.86110   0.70037   0.14021   1.000
    O268    O    0.48881   0.70094   0.64036   1.000
    O269    O    0.98881   0.70094   0.64037   1.000
    O270    O    0.13891   0.29962   0.85979   1.000
    O271    O    0.63892   0.29963   0.85979   1.000
    N272    N    0.16941   0.43166   0.15112   1.000
    O273    O    0.16097   0.49066   0.13118   1.000
    O274    O    0.14960   0.38507   0.17064   1.000
    O275    O    0.21536   0.51091   0.16341   1.000
    O276    O    0.12528   0.40569   0.11689   1.000
    O277    O    0.21518   0.43511   0.15486   1.000
    N278    N    0.28377   0.01514   0.13451   1.000
    O279    O    0.21142   0.87196   0.05774   1.000
    O280    O    0.36458   0.15087   0.21775   1.000
    N281    N    0.77657   0.98460   0.36581   1.000
    O282    O    0.78903   0.84866   0.28230   1.000
    O283    O    0.77627   0.12808   0.44262   1.000
    N284    N    0.27655   0.98460   0.36580   1.000
    O285    O    0.27626   0.12808   0.44261   1.000
    O286    O    0.28902   0.84866   0.28228   1.000
    N287    N    0.45303   0.56761   0.34832   1.000
    O288    O    0.45648   0.61421   0.32881   1.000
    O289    O    0.49704   0.56419   0.34463   1.000
    O290    O    0.45963   0.48840   0.33601   1.000
    O291    O    0.42182   0.59368   0.38263   1.000
    O292    O    0.41532   0.50871   0.36831   1.000
    N293    N    0.66942   0.43167   0.15111   1.000
    O294    O    0.64961   0.38508   0.17065   1.000
    O295    O    0.71537   0.51092   0.16340   1.000
    O296    O    0.71519   0.43513   0.15486   1.000
    O297    O    0.62529   0.40570   0.11689   1.000
    O298    O    0.66097   0.49067   0.13118   1.000
    N299    N    0.71625   0.98487   0.86546   1.000
    O300    O    0.78860   0.12805   0.94224   1.000
    O301    O    0.63543   0.84914   0.78221   1.000
    N302    N    0.22346   0.01541   0.63417   1.000
    O303    O    0.21099   0.15135   0.71769   1.000
    O304    O    0.22375   0.87194   0.55737   1.000
    N305    N    0.21625   0.98487   0.86547   1.000
    O306    O    0.28860   0.12805   0.94224   1.000
    O307    O    0.13543   0.84913   0.78222   1.000
    N308    N    0.54699   0.43239   0.65164   1.000
    O309    O    0.54039   0.51160   0.66394   1.000
    O310    O    0.54354   0.38578   0.67115   1.000
    O311    O    0.57820   0.40633   0.61734   1.000
    O312    O    0.50298   0.43581   0.65535   1.000
    O313    O    0.58470   0.49130   0.63166   1.000
    N314    N    0.95303   0.56761   0.34833   1.000
    O315    O    0.91532   0.50871   0.36832   1.000
    O316    O    0.92182   0.59368   0.38264   1.000
    O317    O    0.95963   0.48840   0.33602   1.000
    O318    O    0.95649   0.61421   0.32883   1.000
    O319    O    0.99704   0.56419   0.34463   1.000
    N320    N    0.72347   0.01541   0.63418   1.000
    O321    O    0.72376   0.87194   0.55737   1.000
    O322    O    0.71100   0.15136   0.71769   1.000
    N323    N    0.78377   0.01514   0.13451   1.000
    O324    O    0.71142   0.87196   0.05774   1.000
    O325    O    0.86459   0.15087   0.21775   1.000
    N326    N    0.04699   0.43239   0.65165   1.000
    O327    O    0.04353   0.38578   0.67115   1.000
    O328    O    0.08469   0.49130   0.63166   1.000
    O329    O    0.04038   0.51160   0.66395   1.000
    O330    O    0.07820   0.40633   0.61734   1.000
    O331    O    0.00298   0.43581   0.65535   1.000
    N332    N    0.33059   0.56832   0.84886   1.000
    O333    O    0.35040   0.61492   0.82933   1.000
    O334    O    0.33904   0.50932   0.86878   1.000
    O335    O    0.28482   0.56486   0.84512   1.000
    O336    O    0.37472   0.59430   0.88310   1.000
    O337    O    0.28464   0.48908   0.83658   1.000
    N338    N    0.83060   0.56833   0.84888   1.000
    O339    O    0.87473   0.59430   0.88310   1.000
    O340    O    0.83904   0.50933   0.86881   1.000
    O341    O    0.85041   0.61492   0.82934   1.000
    O342    O    0.78465   0.48909   0.83659   1.000
    O343    O    0.78483   0.56487   0.84513   1.000
loop_
    _geom_bond_atom_site_label_1
    _geom_bond_atom_site_label_2
    _geom_bond_distance
    _geom_bond_site_symmetry_2
    _ccdc_geom_bond_type
    Zr90   O136      0.63056      .   S
    Zr42   O136      0.63056      .   S
    Zr91   O137      0.63056      .   S
    Zr43   O137      0.63056      .   S
    Zr86   O138      0.63622      .   S
    Zr40   O138      0.63622      .   S
    Zr86   O139      0.99412  1_554   S
    Zr6    O139      0.99412      .   S
    Zr87   O140      0.63622      .   S
    Zr41   O140      0.63622      .   S
    Zr87   O141      0.99411  1_554   S
    Zr7    O141      0.99411      .   S
    Zr14   O142      0.97595      .   S
    Zr88   O142      0.97595      .   S
    Zr14   O143      1.00083      .   S
    Zr96   O143      1.00083      .   S
    Zr14   O144      0.99393      .   S
    Zr122  O144      0.99393  1_556   S
    Zr15   O145      0.97596      .   S
    Zr89   O145      0.97596      .   S
    Zr15   O146      1.00081      .   S
    Zr97   O146      1.00081      .   S
    Zr15   O147      0.99394      .   S
    Zr123  O147      0.99394  1_556   S
    Zr22   O148      0.50159      .   S
    Zr82   O148      0.50159      .   S
    Zr23   O149      0.50124      .   S
    Zr83   O149      0.50124      .   S
    Zr42   O150      0.64120      .   S
    Zr89   O150      0.64120  1_655   S
    Zr43   O151      0.64130      .   S
    Zr88   O151      0.64130      .   S
    Zr85   O152      0.63363      .   S
    Zr41   O152      0.63363      .   S
    Zr85   O153      1.04499      .   S
    Zr5    O153      1.04499      .   S
    Zr84   O154      0.63363      .   S
    Zr40   O154      0.63363      .   S
    Zr84   O155      1.04497      .   S
    Zr4    O155      1.04497      .   S
    Zr98   O156      0.62739      .   S
    Zr46   O156      0.62739      .   S
    Zr98   O157      1.07656      .   S
    Zr4    O157      1.07656      .   S
    Zr99   O158      0.62738      .   S
    Zr47   O158      0.62738      .   S
    Zr99   O159      1.07654      .   S
    Zr5    O159      1.07654      .   S
    Zr96   O160      0.64201      .   S
    Zr46   O160      0.64201      .   S
    Zr97   O161      0.64201      .   S
    Zr47   O161      0.64201      .   S
    Zr82   O162      0.50665      .   S
    Zr20   O162      0.50665      .   S
    Zr83   O163      0.50699      .   S
    Zr21   O163      0.50699      .   S
    Zr4    O164      1.04788      .   S
    Zr74   O164      1.04788      .   S
    Zr5    O165      1.04791      .   S
    Zr75   O165      1.04791      .   S
    Zr44   O166      0.63672      .   S
    Zr92   O166      0.63672      .   S
    Zr44   O167      0.63520      .   S
    Zr94   O167      0.63520      .   S
    Zr45   O168      0.63663      .   S
    Zr93   O168      0.63663      .   S
    Zr45   O169      0.63497      .   S
    Zr95   O169      0.63497      .   S
    Zr76   O170      0.63505      .   S
    Zr36   O170      0.63505      .   S
    Zr77   O171      0.63503      .   S
    Zr37   O171      0.63503      .   S
    Zr92   O172      1.04709      .   S
    Zr1    O172      1.04709  1_655   S
    Zr93   O173      1.04718      .   S
    Zr0    O173      1.04718      .   S
    Zr74   O174      0.63654      .   S
    Zr36   O174      0.63654      .   S
    Zr75   O175      0.63655      .   S
    Zr37   O175      0.63655      .   S
    Zr0    O176      1.07557      .   S
    Zr81   O176      1.07557      .   S
    Zr0    O177      1.04507      .   S
    Zr66   O177      1.04507      .   S
    Zr1    O178      1.07552  1_655   S
    Zr80   O178      1.07552      .   S
    Zr1    O179      1.04508      .   S
    Zr67   O179      1.04508      .   S
    Zr17   O180      0.50687      .   S
    Zr65   O180      0.50687      .   S
    Zr16   O181      0.50687      .   S
    Zr64   O181      0.50687      .   S
    Zr39   O182      0.64204      .   S
    Zr79   O182      0.64204      .   S
    Zr39   O183      0.62732      .   S
    Zr81   O183      0.62732      .   S
    Zr38   O184      0.64204      .   S
    Zr78   O184      0.64204      .   S
    Zr38   O185      0.62733      .   S
    Zr80   O185      0.62733      .   S
    Zr64   O186      0.50118      .   S
    Zr18   O186      0.50118      .   S
    Zr65   O187      0.50050      .   S
    Zr19   O187      0.50050      .   S
    Zr78   O188      0.99926      .   S
    Zr10   O188      0.99926      .   S
    Zr79   O189      0.99927      .   S
    Zr11   O189      0.99927      .   S
    Zr71   O190      0.64137      .   S
    Zr35   O190      0.64137      .   S
    Zr71   O191      0.97719      .   S
    Zr11   O191      0.97719      .   S
    Zr70   O192      0.64137      .   S
    Zr34   O192      0.64137      .   S
    Zr70   O193      0.97720      .   S
    Zr10   O193      0.97720      .   S
    Zr33   O194      0.63359      .   S
    Zr67   O194      0.63359      .   S
    Zr33   O195      0.63626      .   S
    Zr69   O195      0.63626      .   S
    Zr32   O196      0.63359      .   S
    Zr66   O196      0.63359      .   S
    Zr32   O197      0.63626      .   S
    Zr68   O197      0.63626      .   S
    Zr34   O198      0.63064      .   S
    Zr72   O198      0.63064      .   S
    Zr35   O199      0.63053      .   S
    Zr73   O199      0.63053      .   S
    Zr11   O200      0.99319      .   S
    Zr105  O200      0.99319      .   S
    Zr10   O201      0.99319      .   S
    Zr104  O201      0.99319      .   S
    Zr69   O202      0.99321      .   S
    Zr3    O202      0.99321      .   S
    Zr68   O203      0.99324      .   S
    Zr2    O203      0.99324      .   S
    Zr108  O204      0.63064      .   S
    Zr50   O204      0.63064      .   S
    Zr109  O205      0.63064      .   S
    Zr51   O205      0.63064      .   S
    Zr104  O206      0.63623      .   S
    Zr48   O206      0.63623      .   S
    Zr105  O207      0.63623      .   S
    Zr49   O207      0.63623      .   S
    Zr3    O208      0.97718      .   S
    Zr107  O208      0.97718      .   S
    Zr3    O209      0.99926      .   S
    Zr115  O209      0.99926      .   S
    Zr2    O210      0.97717      .   S
    Zr106  O210      0.97717      .   S
    Zr2    O211      0.99916      .   S
    Zr114  O211      0.99916      .   S
    Zr27   O212      0.50116      .   S
    Zr101  O212      0.50116      .   S
    Zr26   O213      0.50115      .   S
    Zr100  O213      0.50115      .   S
    Zr50   O214      0.64137      .   S
    Zr106  O214      0.64137      .   S
    Zr51   O215      0.64137      .   S
    Zr107  O215      0.64137      .   S
    Zr102  O216      0.63357      .   S
    Zr48   O216      0.63357      .   S
    Zr102  O217      1.04457      .   S
    Zr8    O217      1.04457      .   S
    Zr103  O218      0.63357      .   S
    Zr49   O218      0.63357      .   S
    Zr103  O219      1.04446      .   S
    Zr9    O219      1.04446      .   S
    Zr116  O220      0.62736      .   S
    Zr54   O220      0.62736      .   S
    Zr116  O221      1.07530      .   S
    Zr9    O221      1.07530      .   S
    Zr117  O222      0.62732      .   S
    Zr55   O222      0.62732      .   S
    Zr117  O223      1.07528      .   S
    Zr8    O223      1.07528  1_455   S
    Zr114  O224      0.64204      .   S
    Zr54   O224      0.64204      .   S
    Zr115  O225      0.64203      .   S
    Zr55   O225      0.64203      .   S
    Zr100  O226      0.50689      .   S
    Zr24   O226      0.50689      .   S
    Zr101  O227      0.50690      .   S
    Zr25   O227      0.50690      .   S
    Zr9    O228      1.04771      .   S
    Zr128  O228      1.04771      .   S
    Zr8    O229      1.04761  1_455   S
    Zr129  O229      1.04761      .   S
    Zr53   O230      0.63655      .   S
    Zr111  O230      0.63655      .   S
    Zr53   O231      0.63505      .   S
    Zr113  O231      0.63505      .   S
    Zr52   O232      0.63654      .   S
    Zr110  O232      0.63654      .   S
    Zr52   O233      0.63505      .   S
    Zr112  O233      0.63505      .   S
    Zr131  O234      0.63507      .   S
    Zr61   O234      0.63507      .   S
    Zr130  O235      0.63504      .   S
    Zr60   O235      0.63504      .   S
    Zr110  O236      1.04799      .   S
    Zr12   O236      1.04799      .   S
    Zr111  O237      1.04797      .   S
    Zr13   O237      1.04797      .   S
    Zr128  O238      0.63667      .   S
    Zr60   O238      0.63667      .   S
    Zr129  O239      0.63665      .   S
    Zr61   O239      0.63665      .   S
    Zr28   O240      0.50700      .   S
    Zr118  O240      0.50700      .   S
    Zr29   O241      0.50699      .   S
    Zr119  O241      0.50699      .   S
    Zr12   O242      1.07642      .   S
    Zr134  O242      1.07642      .   S
    Zr12   O243      1.04498      .   S
    Zr120  O243      1.04498      .   S
    Zr13   O244      1.07643      .   S
    Zr135  O244      1.07643      .   S
    Zr13   O245      1.04497      .   S
    Zr121  O245      1.04497      .   S
    Zr62   O246      0.64200      .   S
    Zr132  O246      0.64200      .   S
    Zr62   O247      0.62737      .   S
    Zr134  O247      0.62737      .   S
    Zr63   O248      0.64200      .   S
    Zr133  O248      0.64200      .   S
    Zr63   O249      0.62738      .   S
    Zr135  O249      0.62738      .   S
    Zr119  O250      0.50116      .   S
    Zr31   O250      0.50116      .   S
    Zr118  O251      0.50116      .   S
    Zr30   O251      0.50116      .   S
    Zr133  O252      1.00069      .   S
    Zr7    O252      1.00069      .   S
    Zr132  O253      1.00068      .   S
    Zr6    O253      1.00068      .   S
    Zr124  O254      0.64123  1_455   S
    Zr59   O254      0.64123      .   S
    Zr124  O255      0.97591      .   S
    Zr6    O255      0.97591      .   S
    Zr125  O256      0.64130      .   S
    Zr58   O256      0.64130      .   S
    Zr125  O257      0.97586      .   S
    Zr7    O257      0.97586      .   S
    Zr56   O258      0.63364      .   S
    Zr120  O258      0.63364      .   S
    Zr56   O259      0.63626      .   S
    Zr122  O259      0.63626      .   S
    Zr57   O260      0.63364      .   S
    Zr121  O260      0.63364      .   S
    Zr57   O261      0.63625      .   S
    Zr123  O261      0.63625      .   S
    Zr58   O262      0.63056      .   S
    Zr126  O262      0.63056      .   S
    Zr59   O263      0.63038      .   S
    Zr127  O263      0.63038      .   S
    Zr64   O264      1.04419      .   S
    Zr1    O264      1.04419  1_655   S
    Zr65   O265      1.04427      .   S
    Zr0    O265      1.04427      .   S
    Zr82   O266      1.04518      .   S
    Zr4    O266      1.04518      .   S
    Zr83   O267      1.04516      .   S
    Zr5    O267      1.04516      .   S
    Zr100  O268      1.04392      .   S
    Zr9    O268      1.04392      .   S
    Zr101  O269      1.04391      .   S
    Zr8    O269      1.04391  1_455   S
    Zr118  O270      1.04521      .   S
    Zr12   O270      1.04521      .   S
    Zr119  O271      1.04522      .   S
    Zr13   O271      1.04522      .   S
    N272   O273      1.02453      .   S
    Zr40   O273      1.72982      .   S
    N272   O274      0.78535      .   S
    Zr44   O274      1.46871      .   S
    N272   O275      1.17477      .   S
    Zr4    O275      2.25534      .   S
    N272   O276      0.95080      .   S
    Zr42   O276      1.69181      .   S
    N272   O277      0.83820      .   S
    Zr46   O277      1.50257      .   S
    N278   O279      2.28581  1_545   S
    Zr6    O279      3.31665  1_556   S
    N278   O280      2.32967      .   S
    Zr0    O280      3.42884      .   S
    N281   O282      2.32807      .   S
    Zr5    O282      3.42542      .   S
    N281   O283      2.28463  1_565   S
    Zr3    O283      3.31439      .   S
    N284   O285      2.28468  1_565   S
    Zr2    O285      3.31443      .   S
    N284   O286      2.32816      .   S
    Zr4    O286      3.42533      .   S
    N287   O288      0.78523      .   S
    Zr36   O288      1.46829      .   S
    N287   O289      0.83705      .   S
    Zr39   O289      1.50068      .   S
    N287   O290      1.17489      .   S
    Zr0    O290      2.25824      .   S
    N287   O291      0.95165      .   S
    Zr34   O291      1.69352      .   S
    N287   O292      1.02285      .   S
    Zr32   O292      1.72696      .   S
    N293   O294      0.78550      .   S
    Zr45   O294      1.46923      .   S
    N293   O295      1.17477      .   S
    Zr5    O295      2.25532      .   S
    N293   O296      0.83819      .   S
    Zr47   O296      1.50253      .   S
    N293   O297      0.95078      .   S
    Zr43   O297      1.69179      .   S
    N293   O298      1.02451      .   S
    Zr41   O298      1.72979      .   S
    N299   O300      2.28585  1_565   S
    Zr15   O300      3.31667  1_554   S
    N299   O301      2.32978      .   S
    Zr9    O301      3.42934      .   S
    N302   O303      2.32813      .   S
    Zr12   O303      3.42549      .   S
    N302   O304      2.28455  1_545   S
    Zr10   O304      3.31427      .   S
    N305   O306      2.28582  1_565   S
    Zr14   O306      3.31665  1_554   S
    N305   O307      2.32977      .   S
    Zr8    O307      3.42926      .   S
    N308   O309      1.17493      .   S
    Zr9    O309      2.25853      .   S
    N308   O310      0.78530      .   S
    Zr53   O310      1.46840      .   S
    N308   O311      0.95155      .   S
    Zr51   O311      1.69338      .   S
    N308   O312      0.83709      .   S
    Zr54   O312      1.50069      .   S
    N308   O313      1.02280      .   S
    Zr49   O313      1.72697      .   S
    N314   O315      1.02280      .   S
    Zr33   O315      1.72691      .   S
    N314   O316      0.95160      .   S
    Zr35   O316      1.69343      .   S
    N314   O317      1.17491      .   S
    Zr1    O317      2.25826      .   S
    N314   O318      0.78524      .   S
    Zr37   O318      1.46832      .   S
    N314   O319      0.83698      .   S
    Zr38   O319      1.50060  1_455   S
    N320   O321      2.28456  1_545   S
    Zr11   O321      3.31427      .   S
    N320   O322      2.32814      .   S
    Zr13   O322      3.42552      .   S
    N323   O324      2.28577  1_545   S
    Zr7    O324      3.31661  1_556   S
    N323   O325      2.32970      .   S
    Zr1    O325      3.42887      .   S
    N326   O327      0.78526      .   S
    Zr52   O327      1.46836      .   S
    N326   O328      1.02280      .   S
    Zr48   O328      1.72698      .   S
    N326   O329      1.17494      .   S
    Zr8    O329      2.25852      .   S
    N326   O330      0.95155      .   S
    Zr50   O330      1.69338      .   S
    N326   O331      0.83701      .   S
    Zr55   O331      1.50061  1_655   S
    N332   O333      0.78544      .   S
    Zr60   O333      1.46916      .   S
    N332   O334      1.02437      .   S
    Zr56   O334      1.73004      .   S
    N332   O335      0.83817      .   S
    Zr62   O335      1.50255      .   S
    N332   O336      0.95088      .   S
    Zr58   O336      1.69187      .   S
    N332   O337      1.17473      .   S
    Zr12   O337      2.25531      .   S
    N338   O339      0.95081      .   S
    Zr59   O339      1.69182      .   S
    N338   O340      1.02450      .   S
    Zr57   O340      1.72975      .   S
    N338   O341      0.78548      .   S
    Zr61   O341      1.46915      .   S
    N338   O342      1.17474      .   S
    Zr13   O342      2.25530      .   S
    N338   O343      0.83819      .   S
    Zr63   O343      1.50255      .   S
